/Users/chinazoemeh/HopeMScP/data/ligands/bd2/BRD4_BD2_20_7USJ/BRD4_BD2_20_7USJ.pdb
 OpenBabel07172512173D

 52 60  0  0  0  0  0  0  0  0999 V2000
  -27.3870   18.4560  -16.6740 C   0  0  0  0  0  0  0  0  0  0  0  0
  -26.6690   14.9520  -12.5160 C   0  0  0  0  0  0  0  0  0  0  0  0
  -28.2000   13.4680  -11.2240 C   0  0  0  0  0  0  0  0  0  0  0  0
  -30.3620   13.6180  -12.6090 C   0  0  0  0  0  0  0  0  0  0  0  0
  -33.1420   12.9740  -13.2220 C   0  0  0  0  0  0  0  0  0  0  0  0
  -34.8060   11.3040  -13.5740 C   0  0  0  0  0  0  0  0  0  0  0  0
  -30.9510   12.3570  -12.3290 C   0  0  0  0  0  0  0  0  0  0  0  0
  -24.4450   15.8100  -12.6950 O   0  0  0  0  0  0  0  0  0  0  0  0
  -25.6210   15.7850  -13.1210 C   0  0  0  0  0  0  0  0  0  0  0  0
  -26.0370   16.6110  -14.2740 C   0  0  0  0  0  0  0  0  0  0  0  0
  -27.3180   16.5900  -14.6980 C   0  0  0  0  0  0  0  0  0  0  0  0
  -27.9720   17.3410  -15.8440 N   0  0  0  0  0  0  0  0  0  0  0  0
  -29.3640   17.1190  -16.3370 C   0  0  0  0  0  0  0  0  0  0  0  0
  -30.2640   18.3640  -16.2820 C   0  0  0  0  0  0  0  0  0  0  0  0
  -29.5440   19.5720  -16.1550 O   0  0  0  0  0  0  0  0  0  0  0  0
  -28.3630   19.6410  -16.9470 C   0  0  0  0  0  0  0  0  0  0  0  0
  -28.1820   15.5870  -14.2220 O   0  0  0  0  0  0  0  0  0  0  0  0
  -27.9170   14.8710  -13.0740 C   0  0  0  0  0  0  0  0  0  0  0  0
  -26.5400   14.0130  -11.1030 S   0  0  0  0  0  0  0  0  0  0  0  0
  -28.9060   13.9520  -12.2950 C   0  0  0  0  0  0  0  0  0  0  0  0
  -31.2550   14.5360  -13.2170 C   0  0  0  0  0  0  0  0  0  0  0  0
  -32.5990   14.2320  -13.5200 C   0  0  0  0  0  0  0  0  0  0  0  0
  -34.4620   12.6880  -13.5150 O   0  0  0  0  0  0  0  0  0  0  0  0
  -34.2220   10.5510  -12.3940 C   0  0  0  0  0  0  0  0  0  0  0  0
  -32.8040   10.7910  -12.3040 O   0  0  0  0  0  0  0  0  0  0  0  0
  -32.3080   12.0290  -12.6180 C   0  0  0  0  0  0  0  0  0  0  0  0
  -18.4640   27.5560   20.0780 C   0  0  0  0  0  0  0  0  0  0  0  0
  -15.0920   26.8210   15.8220 C   0  0  0  0  0  0  0  0  0  0  0  0
  -13.5220   28.3040   14.5660 C   0  0  0  0  0  0  0  0  0  0  0  0
  -13.7310   30.4750   15.9190 C   0  0  0  0  0  0  0  0  0  0  0  0
  -13.1130   33.2390   16.6400 C   0  0  0  0  0  0  0  0  0  0  0  0
  -11.5020   34.9710   16.9110 C   0  0  0  0  0  0  0  0  0  0  0  0
  -12.4670   31.0830   15.6710 C   0  0  0  0  0  0  0  0  0  0  0  0
  -16.0590   24.6280   15.9750 O   0  0  0  0  0  0  0  0  0  0  0  0
  -15.9740   25.7990   16.4120 C   0  0  0  0  0  0  0  0  0  0  0  0
  -16.7930   26.2400   17.5660 C   0  0  0  0  0  0  0  0  0  0  0  0
  -16.7250   27.5070   18.0090 C   0  0  0  0  0  0  0  0  0  0  0  0
  -17.3880   28.1400   19.1820 N   0  0  0  0  0  0  0  0  0  0  0  0
  -17.1270   29.5600   19.6590 C   0  0  0  0  0  0  0  0  0  0  0  0
  -18.4100   30.4060   19.8140 C   0  0  0  0  0  0  0  0  0  0  0  0
  -19.5650   29.6830   19.4470 O   0  0  0  0  0  0  0  0  0  0  0  0
  -19.7240   28.4530   20.1780 C   0  0  0  0  0  0  0  0  0  0  0  0
  -15.7820   28.4000   17.4680 O   0  0  0  0  0  0  0  0  0  0  0  0
  -15.0170   28.0820   16.3540 C   0  0  0  0  0  0  0  0  0  0  0  0
  -14.0760   26.6600   14.4710 S   0  0  0  0  0  0  0  0  0  0  0  0
  -14.0510   29.0380   15.5890 C   0  0  0  0  0  0  0  0  0  0  0  0
  -14.6710   31.3360   16.5600 C   0  0  0  0  0  0  0  0  0  0  0  0
  -14.3850   32.6710   16.8980 C   0  0  0  0  0  0  0  0  0  0  0  0
  -12.8570   34.5510   16.9860 O   0  0  0  0  0  0  0  0  0  0  0  0
  -10.8340   34.3800   15.6750 C   0  0  0  0  0  0  0  0  0  0  0  0
  -10.9290   32.9470   15.7340 O   0  0  0  0  0  0  0  0  0  0  0  0
  -12.1490   32.4280   16.0210 C   0  0  0  0  0  0  0  0  0  0  0  0
  1 12  1  0  0  0  0
  2 19  1  0  0  0  0
  3 19  1  0  0  0  0
  4  7  1  0  0  0  0
  4 20  1  0  0  0  0
  5 26  1  0  0  0  0
  6 23  1  0  0  0  0
  6 24  1  0  0  0  0
  9  8  2  0  0  0  0
  9  2  1  0  0  0  0
 10  9  1  0  0  0  0
 11 10  2  0  0  0  0
 11 17  1  0  0  0  0
 12 11  1  0  0  0  0
 13 14  1  0  0  0  0
 13 12  1  0  0  0  0
 14 15  1  0  0  0  0
 16  1  1  0  0  0  0
 16 15  1  0  0  0  0
 17 18  1  0  0  0  0
 18  2  2  0  0  0  0
 18 20  1  0  0  0  0
 20  3  2  0  0  0  0
 21  4  2  0  0  0  0
 22  5  2  0  0  0  0
 22 21  1  0  0  0  0
 23  5  1  0  0  0  0
 24 25  1  0  0  0  0
 26  7  2  0  0  0  0
 26 25  1  0  0  0  0
 27 42  1  0  0  0  0
 28 44  2  0  0  0  0
 28 35  1  0  0  0  0
 29 46  2  0  0  0  0
 30 47  1  0  0  0  0
 31 48  1  0  0  0  0
 31 49  1  0  0  0  0
 32 49  1  0  0  0  0
 33 30  2  0  0  0  0
 33 52  1  0  0  0  0
 34 35  2  0  0  0  0
 35 36  1  0  0  0  0
 36 37  2  0  0  0  0
 37 38  1  0  0  0  0
 38 39  1  0  0  0  0
 38 27  1  0  0  0  0
 39 40  1  0  0  0  0
 41 40  1  0  0  0  0
 41 42  1  0  0  0  0
 43 37  1  0  0  0  0
 44 43  1  0  0  0  0
 45 29  1  0  0  0  0
 45 28  1  0  0  0  0
 46 30  1  0  0  0  0
 46 44  1  0  0  0  0
 47 48  2  0  0  0  0
 50 51  1  0  0  0  0
 50 32  1  0  0  0  0
 51 52  1  0  0  0  0
 52 31  2  0  0  0  0
M  END
$$$$
