/Users/chinazoemeh/HopeMScP/data/ligands/bd2/BRD4_BD2_19_5U2C/BRD4_BD2_19_5U2C.pdb
 OpenBabel07172512173D

 52 58  0  0  1  0  0  0  0  0999 V2000
   -5.2580   44.6590   14.6220 C   0  0  0  0  0  0  0  0  0  0  0  0
   -8.2260   42.6760   11.8190 C   0  0  0  0  0  0  0  0  0  0  0  0
  -10.0370   44.4270   11.7440 C   0  0  2  0  0  0  0  0  0  0  0  0
  -11.3130   46.5310   11.2600 C   0  0  0  0  0  0  0  0  0  0  0  0
   -9.2900   46.6500   12.6130 C   0  0  0  0  0  0  0  0  0  0  0  0
   -1.8930   44.2940   18.2920 O   0  0  0  0  0  0  0  0  0  0  0  0
   -2.6410   43.7150   17.2670 N   0  0  0  0  0  0  0  0  0  0  0  0
   -3.5920   44.4980   16.5530 C   0  0  0  0  0  0  0  0  0  0  0  0
   -3.7470   45.6560   16.8330 O   0  0  0  0  0  0  0  0  0  0  0  0
   -4.4300   43.8600   15.4170 C   0  0  0  0  0  0  0  0  0  0  0  0
   -4.3660   42.4610   15.1800 C   0  0  0  0  0  0  0  0  0  0  0  0
   -5.1370   41.8700   14.1370 C   0  0  0  0  0  0  0  0  0  0  0  0
   -5.9700   42.6810   13.3330 C   0  0  0  0  0  0  0  0  0  0  0  0
   -6.0320   44.0690   13.5750 C   0  0  0  0  0  0  0  0  0  0  0  0
   -6.8410   42.1100   12.1790 C   0  0  0  0  0  0  0  0  0  0  0  0
   -6.5330   41.0200   11.2580 C   0  0  0  0  0  0  0  0  0  0  0  0
   -7.7560   40.8170   10.2250 S   0  0  0  0  0  0  0  0  0  0  0  0
   -8.7990   41.9820   10.7170 C   0  0  0  0  0  0  0  0  0  0  0  0
   -8.9050   43.8080   12.5290 O   0  0  0  0  0  0  0  0  0  0  0  0
  -10.6310   43.6710   10.5940 C   0  0  0  0  0  0  0  0  0  0  0  0
  -10.1030   42.3700   10.2350 C   0  0  0  0  0  0  0  0  0  0  0  0
  -10.7510   41.6150    9.5360 O   0  0  0  0  0  0  0  0  0  0  0  0
  -10.2120   45.8840   11.8760 N   0  0  0  0  0  0  0  0  0  0  0  0
  -11.4200   48.0030   11.5660 C   0  0  0  0  0  0  0  0  0  0  0  0
  -10.1540   48.6190   11.3650 O   0  0  0  0  0  0  0  0  0  0  0  0
   -9.2300   48.1630   12.3300 C   0  0  0  0  0  0  0  0  0  0  0  0
   -5.5030   42.0550  -26.4570 C   0  0  0  0  0  0  0  0  0  0  0  0
   -3.4190   39.3880  -22.7850 C   0  0  0  0  0  0  0  0  0  0  0  0
   -0.9340   39.1050  -22.8840 C   0  0  2  0  0  0  0  0  0  0  0  0
   -0.3880   41.4660  -23.3450 C   0  0  0  0  0  0  0  0  0  0  0  0
    1.4640   39.8570  -23.1970 C   0  0  0  0  0  0  0  0  0  0  0  0
   -2.9490   45.7560  -28.6690 O   0  0  0  0  0  0  0  0  0  0  0  0
   -3.1100   44.8240  -27.6460 N   0  0  0  0  0  0  0  0  0  0  0  0
   -4.3050   44.0500  -27.5670 C   0  0  0  0  0  0  0  0  0  0  0  0
   -5.1720   44.1930  -28.3860 O   0  0  0  0  0  0  0  0  0  0  0  0
   -4.4750   43.0120  -26.4300 C   0  0  0  0  0  0  0  0  0  0  0  0
   -3.5660   43.0360  -25.3480 C   0  0  0  0  0  0  0  0  0  0  0  0
   -3.6980   42.0950  -24.2980 C   0  0  0  0  0  0  0  0  0  0  0  0
   -4.7310   41.1320  -24.3070 C   0  0  0  0  0  0  0  0  0  0  0  0
   -5.6380   41.0980  -25.3920 C   0  0  0  0  0  0  0  0  0  0  0  0
   -4.7020   40.1780  -23.0790 C   0  0  0  0  0  0  0  0  0  0  0  0
   -5.6700   39.8860  -22.0230 C   0  0  0  0  0  0  0  0  0  0  0  0
   -5.0230   38.8260  -20.9820 S   0  0  0  0  0  0  0  0  0  0  0  0
   -3.5300   38.5940  -21.6210 C   0  0  0  0  0  0  0  0  0  0  0  0
   -2.1940   39.4230  -23.6400 O   0  0  0  0  0  0  0  0  0  0  0  0
   -1.0680   38.2790  -21.6370 C   0  0  0  0  0  0  0  0  0  0  0  0
   -2.3850   37.8010  -21.2400 C   0  0  0  0  0  0  0  0  0  0  0  0
   -2.5120   36.7720  -20.6050 O   0  0  0  0  0  0  0  0  0  0  0  0
    0.0900   40.1390  -23.1160 N   0  0  0  0  0  0  0  0  0  0  0  0
    0.6360   42.5680  -23.2170 C   0  0  0  0  0  0  0  0  0  0  0  0
    1.8400   42.2050  -23.8850 O   0  0  0  0  0  0  0  0  0  0  0  0
    2.4080   41.0700  -23.2660 C   0  0  0  0  0  0  0  0  0  0  0  0
  1 10  1  0  0  0  0
  2 15  1  0  0  0  0
  2 19  1  0  0  0  0
  3 20  1  6  0  0  0
  3 23  1  0  0  0  0
  3 19  1  0  0  0  0
  4 24  1  0  0  0  0
  4 23  1  0  0  0  0
  7  6  1  0  0  0  0
  8  9  2  0  0  0  0
  8  7  1  0  0  0  0
 10  8  1  0  0  0  0
 11 10  2  0  0  0  0
 12 11  1  0  0  0  0
 13 14  1  0  0  0  0
 13 12  2  0  0  0  0
 14  1  2  0  0  0  0
 15 13  1  0  0  0  0
 16 15  2  0  0  0  0
 17 18  1  0  0  0  0
 17 16  1  0  0  0  0
 18  2  2  0  0  0  0
 21 20  1  0  0  0  0
 21 18  1  0  0  0  0
 22 21  2  0  0  0  0
 23  5  1  0  0  0  0
 25 24  1  0  0  0  0
 25 26  1  0  0  0  0
 26  5  1  0  0  0  0
 27 36  2  0  0  0  0
 27 40  1  0  0  0  0
 28 44  2  0  0  0  0
 29 49  1  1  0  0  0
 29 46  1  0  0  0  0
 30 50  1  0  0  0  0
 30 49  1  0  0  0  0
 31 49  1  0  0  0  0
 32 33  1  0  0  0  0
 33 34  1  0  0  0  0
 34 36  1  0  0  0  0
 35 34  2  0  0  0  0
 36 37  1  0  0  0  0
 37 38  2  0  0  0  0
 39 38  1  0  0  0  0
 39 41  1  0  0  0  0
 40 39  2  0  0  0  0
 41 28  1  0  0  0  0
 41 42  2  0  0  0  0
 42 43  1  0  0  0  0
 44 47  1  0  0  0  0
 44 43  1  0  0  0  0
 45 29  1  0  0  0  0
 45 28  1  0  0  0  0
 46 47  1  0  0  0  0
 47 48  2  0  0  0  0
 51 52  1  0  0  0  0
 51 50  1  0  0  0  0
 52 31  1  0  0  0  0
M  END
$$$$
