/Users/chinazoemeh/HopeMScP/data/ligands/bd2/BRD4_BD2_30_7KO0/BRD4_BD2_30_7KO0.pdb
 OpenBabel07172512173D

 41 44  0  0  0  0  0  0  0  0999 V2000
   -5.9480   -3.2840   -8.5270 C   0  0  0  0  0  0  0  0  0  0  0  0
   -8.1550   -4.1380   -9.1040 C   0  0  0  0  0  0  0  0  0  0  0  0
  -10.0920   -5.2070  -10.2000 C   0  0  0  0  0  0  0  0  0  0  0  0
  -12.0650   -6.1340  -11.2310 C   0  0  0  0  0  0  0  0  0  0  0  0
  -10.8450   -7.4440   -9.6780 C   0  0  0  0  0  0  0  0  0  0  0  0
   -9.5880   -8.9380   -8.1210 C   0  0  0  0  0  0  0  0  0  0  0  0
   -7.3360   -8.7130   -7.1580 C   0  0  0  0  0  0  0  0  0  0  0  0
   -7.6010   -9.8670   -6.3510 C   0  0  0  0  0  0  0  0  0  0  0  0
   -4.6620   -3.8570   -6.2430 Cl  0  0  0  0  0  0  0  0  0  0  0  0
   -5.9880   -3.9840   -7.2990 C   0  0  0  0  0  0  0  0  0  0  0  0
   -7.1050   -4.7710   -6.9600 C   0  0  0  0  0  0  0  0  0  0  0  0
   -7.1180   -5.4390   -5.7700 N   0  0  0  0  0  0  0  0  0  0  0  0
   -8.4780   -5.8920   -4.8300 S   0  0  0  0  0  0  0  0  0  0  0  0
   -9.0450   -4.4910   -3.7860 C   0  0  0  0  0  0  0  0  0  0  0  0
   -9.3000   -3.2830   -4.7290 C   0  0  0  0  0  0  0  0  0  0  0  0
   -7.9300   -4.1400   -2.7570 C   0  0  0  0  0  0  0  0  0  0  0  0
  -10.3650   -4.9120   -3.0770 C   0  0  0  0  0  0  0  0  0  0  0  0
   -8.0320   -7.0970   -3.8890 O   0  0  0  0  0  0  0  0  0  0  0  0
   -9.6660   -6.2860   -5.8060 O   0  0  0  0  0  0  0  0  0  0  0  0
   -8.1670   -4.8200   -7.8770 C   0  0  0  0  0  0  0  0  0  0  0  0
   -7.0270   -3.3560   -9.4260 C   0  0  0  0  0  0  0  0  0  0  0  0
   -9.1800   -4.1950  -10.0060 N   0  0  0  0  0  0  0  0  0  0  0  0
  -11.1800   -5.0490  -11.0930 C   0  0  0  0  0  0  0  0  0  0  0  0
  -11.4450   -3.8170  -11.8800 C   0  0  0  0  0  0  0  0  0  0  0  0
  -11.8810   -7.2830  -10.5330 N   0  0  0  0  0  0  0  0  0  0  0  0
  -10.6210   -8.5780   -8.9460 N   0  0  0  0  0  0  0  0  0  0  0  0
   -8.3340   -8.2280   -8.0680 C   0  0  0  0  0  0  0  0  0  0  0  0
   -6.1350   -8.1050   -7.0390 F   0  0  0  0  0  0  0  0  0  0  0  0
   -6.6260  -10.3870   -5.4270 C   0  0  0  0  0  0  0  0  0  0  0  0
   -5.4300   -9.7650   -5.1840 N   0  0  0  0  0  0  0  0  0  0  0  0
   -4.3070  -10.3340   -4.4820 C   0  0  0  0  0  0  0  0  0  0  0  0
   -4.4540  -10.1270   -2.9430 C   0  0  0  0  0  0  0  0  0  0  0  0
   -3.1080   -9.8460   -2.2020 C   0  0  0  0  0  0  0  0  0  0  0  0
   -1.8670  -10.4240   -2.8200 N   0  0  0  0  0  0  0  0  0  0  0  0
   -0.5930  -10.1400   -2.0990 C   0  0  0  0  0  0  0  0  0  0  0  0
   -1.7840  -10.4150   -4.3170 C   0  0  0  0  0  0  0  0  0  0  0  0
   -2.9840   -9.7020   -4.9910 C   0  0  0  0  0  0  0  0  0  0  0  0
   -6.7450  -11.5640   -5.0070 O   0  0  0  0  0  0  0  0  0  0  0  0
   -8.8660  -10.5270   -6.4440 C   0  0  0  0  0  0  0  0  0  0  0  0
   -9.8850  -10.0940   -7.3110 C   0  0  0  0  0  0  0  0  0  0  0  0
   -9.9850   -6.3940   -9.5460 N   0  0  0  0  0  4  0  0  0  0  0  0
  1 10  1  0  0  0  0
  2 20  2  0  0  0  0
  3 22  1  0  0  0  0
  3 41  2  0  0  0  0
  4 23  2  0  0  0  0
  4 25  1  0  0  0  0
  5 41  2  0  0  0  0
  5 26  1  0  0  0  0
  6 27  2  0  0  0  0
  6 40  1  0  0  0  0
  7 28  1  0  0  0  0
  7  8  2  0  0  0  0
  8 29  1  0  0  0  0
 10 11  2  0  0  0  0
 10  9  1  0  0  0  0
 11 12  1  0  0  0  0
 12 13  1  0  0  0  0
 13 18  2  0  0  0  0
 13 14  1  0  0  0  0
 14 17  1  0  0  0  0
 14 16  1  0  0  0  0
 15 14  1  0  0  0  0
 19 13  2  0  0  0  0
 20 11  1  0  0  0  0
 21  2  1  0  0  0  0
 21  1  2  0  0  0  0
 22  2  1  0  0  0  0
 23  3  1  0  0  0  0
 24 23  1  0  0  0  0
 25  5  2  0  0  0  0
 26  6  1  0  0  0  0
 27  7  1  0  0  0  0
 29 30  1  0  0  0  0
 29 38  2  0  0  0  0
 30 31  1  0  0  0  0
 31 32  1  0  0  0  0
 32 33  1  0  0  0  0
 34 33  1  0  0  0  0
 34 35  1  0  0  0  0
 36 34  1  0  0  0  0
 37 31  1  0  0  0  0
 37 36  1  0  0  0  0
 39  8  1  0  0  0  0
 40 39  2  0  0  0  0
M  END
$$$$
