/Users/chinazoemeh/HopeMScP/data/ligands/bd2/BRD4_BD2_29_6C7Q/BRD4_BD2_29_6C7Q.pdb
 OpenBabel07172512173D

 20 18  0  0  1  0  0  0  0  0999 V2000
    4.9390   16.0480   -5.0650 N   0  0  0  0  0  0  0  0  0  0  0  0
    4.4540   15.4390   -3.8130 C   0  0  1  0  0  0  0  0  0  0  0  0
    2.9480   15.2720   -3.9200 C   0  0  0  0  0  0  0  0  0  0  0  0
    2.2670   14.2670   -2.5450 S   0  0  0  0  0  0  0  0  0  0  0  0
    2.6890   15.3640   -0.8970 S   0  0  0  0  0  0  0  0  0  0  0  0
    1.0760   16.1920   -0.6450 C   0  0  0  0  0  0  0  0  0  0  0  0
    0.8330   16.5660    0.8300 C   0  0  0  0  0  0  0  0  0  0  0  0
    2.0920   16.9480    1.4500 O   0  0  0  0  0  0  0  0  0  0  0  0
    5.2420   14.1440   -3.4920 C   0  0  0  0  0  0  0  0  0  0  0  0
    5.6600   13.9470   -2.3500 O   0  0  0  0  0  0  0  0  0  0  0  0
   17.5480  -13.6650   -1.5010 N   0  0  0  0  0  0  0  0  0  0  0  0
   17.3050  -13.6410   -2.9540 C   0  0  1  0  0  0  0  0  0  0  0  0
   18.5760  -13.5750   -3.8270 C   0  0  0  0  0  0  0  0  0  0  0  0
   19.4020  -12.0010   -3.3780 S   0  0  0  0  0  0  0  0  0  0  0  0
   18.0350  -10.5210   -3.9410 S   0  0  0  0  0  0  0  0  0  0  0  0
   18.0490  -10.6170   -5.7820 C   0  0  0  0  0  0  0  0  0  0  0  0
   16.6460  -10.9180   -6.3290 C   0  0  0  0  0  0  0  0  0  0  0  0
   16.2850  -12.3250   -6.2550 O   0  0  0  0  0  0  0  0  0  0  0  0
   16.4150  -14.7940   -3.4300 C   0  0  0  0  0  0  0  0  0  0  0  0
   15.8900  -14.7400   -4.5470 O   0  0  0  0  0  0  0  0  0  0  0  0
  2  1  1  6  0  0  0
  2  9  1  0  0  0  0
  3  2  1  0  0  0  0
  3  4  1  0  0  0  0
  4  5  1  0  0  0  0
  5  6  1  0  0  0  0
  6  7  1  0  0  0  0
  7  8  1  0  0  0  0
  9 10  2  0  0  0  0
 12 11  1  1  0  0  0
 13 14  1  0  0  0  0
 13 12  1  0  0  0  0
 15 14  1  0  0  0  0
 16 15  1  0  0  0  0
 17 18  1  0  0  0  0
 17 16  1  0  0  0  0
 19 12  1  0  0  0  0
 20 19  2  0  0  0  0
M  END
$$$$
