/Users/chinazoemeh/HopeMScP/data/ligands/bd2/BRD4_BD2_12_7WJS/BRD4_BD2_12_7WJS.pdb
 OpenBabel07172512173D

 54 45  0  0  0  0  0  0  0  0999 V2000
  -66.4760   38.8350   17.3660 C   0  0  0  0  0  0  0  0  0  0  0  0
  -67.0940   38.7550   16.0660 O   0  0  0  0  0  0  0  0  0  0  0  0
  -65.2550   39.7680   17.2980 C   0  0  0  0  0  0  0  0  0  0  0  0
  -65.6250   41.0990   17.6920 O   0  0  0  0  0  0  0  0  0  0  0  0
  -64.1210   39.2250   18.1800 C   0  0  0  0  0  0  0  0  0  0  0  0
  -62.9270   40.0310   18.1760 O   0  0  0  0  0  0  0  0  0  0  0  0
  -62.9080   44.4860    3.8740 C   0  0  0  0  0  0  0  0  0  0  0  0
  -61.4930   44.6010    3.7860 O   0  0  0  0  0  0  0  0  0  0  0  0
  -63.5450   45.8140    4.2190 C   0  0  0  0  0  0  0  0  0  0  0  0
  -64.9580   45.6100    4.0320 O   0  0  0  0  0  0  0  0  0  0  0  0
  -63.0780   46.0930    5.6540 C   0  0  0  0  0  0  0  0  0  0  0  0
  -63.5920   47.2540    6.2790 O   0  0  0  0  0  0  0  0  0  0  0  0
  -67.0710   28.1500   11.4960 C   0  0  0  0  0  0  0  0  0  0  0  0
  -65.8170   28.6290   11.0060 O   0  0  0  0  0  0  0  0  0  0  0  0
  -67.8650   27.4990   10.3650 C   0  0  0  0  0  0  0  0  0  0  0  0
  -67.5230   28.1020    9.1040 O   0  0  0  0  0  0  0  0  0  0  0  0
  -67.5930   25.9900   10.3670 C   0  0  0  0  0  0  0  0  0  0  0  0
  -68.3560   25.3270    9.3470 O   0  0  0  0  0  0  0  0  0  0  0  0
  -62.0680   17.1620   12.6370 C   0  0  0  0  0  0  0  0  0  0  0  0
  -63.2430   16.7900   13.3580 O   0  0  0  0  0  0  0  0  0  0  0  0
  -61.3400   18.2170   13.4500 C   0  0  0  0  0  0  0  0  0  0  0  0
  -62.2950   19.1410   14.0040 O   0  0  0  0  0  0  0  0  0  0  0  0
  -60.5420   17.5180   14.5410 C   0  0  0  0  0  0  0  0  0  0  0  0
  -60.2220   18.4520   15.5750 O   0  0  0  0  0  0  0  0  0  0  0  0
  -54.8380   25.0480    1.2900 C   0  0  0  0  0  0  0  0  0  0  0  0
  -55.8180   24.9050    0.2510 O   0  0  0  0  0  0  0  0  0  0  0  0
  -53.8570   23.8730    1.2580 C   0  0  0  0  0  0  0  0  0  0  0  0
  -53.9230   23.2060   -0.0140 O   0  0  0  0  0  0  0  0  0  0  0  0
  -52.4130   24.3250    1.5010 C   0  0  0  0  0  0  0  0  0  0  0  0
  -51.7020   23.3180    2.2380 O   0  0  0  0  0  0  0  0  0  0  0  0
  -68.7150   21.0360  -17.4290 C   0  0  0  0  0  0  0  0  0  0  0  0
  -67.2930   20.8350  -17.3550 O   0  0  0  0  0  0  0  0  0  0  0  0
  -69.3730   19.9680  -18.3100 C   0  0  0  0  0  0  0  0  0  0  0  0
  -69.5840   18.7310  -17.6050 O   0  0  0  0  0  0  0  0  0  0  0  0
  -70.7030   20.5110  -18.8230 C   0  0  0  0  0  0  0  0  0  0  0  0
  -71.3630   19.4880  -19.5730 O   0  0  0  0  0  0  0  0  0  0  0  0
  -19.2650   10.6460   -4.3420 C   0  0  0  0  0  0  0  0  0  0  0  0
  -18.4030   11.7840   -4.4000 O   0  0  0  0  0  0  0  0  0  0  0  0
  -19.9150   10.4930   -5.7170 C   0  0  0  0  0  0  0  0  0  0  0  0
  -18.8810   10.3570   -6.7060 O   0  0  0  0  0  0  0  0  0  0  0  0
  -20.8880    9.3090   -5.8000 C   0  0  0  0  0  0  0  0  0  0  0  0
  -20.9230    8.5140   -4.6060 O   0  0  0  0  0  0  0  0  0  0  0  0
  -34.0000   31.4070   14.3710 C   0  0  0  0  0  0  0  0  0  0  0  0
  -33.7920   32.7980   14.6180 O   0  0  0  0  0  0  0  0  0  0  0  0
  -34.9030   31.2840   13.1480 C   0  0  0  0  0  0  0  0  0  0  0  0
  -36.2230   30.8690   13.5180 O   0  0  0  0  0  0  0  0  0  0  0  0
  -34.3070   30.2820   12.1690 C   0  0  0  0  0  0  0  0  0  0  0  0
  -35.1090   30.2600   10.9830 O   0  0  0  0  0  0  0  0  0  0  0  0
  -27.1150   34.0180   -8.6860 C   0  0  0  0  0  0  0  0  0  0  0  0
  -27.1810   35.4560   -8.7640 O   0  0  0  0  0  0  0  0  0  0  0  0
  -27.3800   33.2790  -10.0140 C   0  0  0  0  0  0  0  0  0  0  0  0
  -28.7230   32.7910  -10.0120 O   0  0  0  0  0  0  0  0  0  0  0  0
  -27.1420   34.1140  -11.2790 C   0  0  0  0  0  0  0  0  0  0  0  0
  -27.7200   33.5070  -12.4420 O   0  0  0  0  0  0  0  0  0  0  0  0
  2  1  1  0  0  0  0
  3  1  1  0  0  0  0
  3  4  1  0  0  0  0
  3  5  1  0  0  0  0
  6  5  1  0  0  0  0
  7  9  1  0  0  0  0
  8  7  1  0  0  0  0
  9 11  1  0  0  0  0
 10  9  1  0  0  0  0
 11 12  1  0  0  0  0
 14 13  1  0  0  0  0
 15 17  1  0  0  0  0
 15 13  1  0  0  0  0
 16 15  1  0  0  0  0
 18 17  1  0  0  0  0
 19 20  1  0  0  0  0
 19 21  1  0  0  0  0
 21 22  1  0  0  0  0
 21 23  1  0  0  0  0
 23 24  1  0  0  0  0
 26 25  1  0  0  0  0
 27 25  1  0  0  0  0
 27 29  1  0  0  0  0
 28 27  1  0  0  0  0
 29 30  1  0  0  0  0
 31 32  1  0  0  0  0
 33 34  1  0  0  0  0
 33 31  1  0  0  0  0
 35 33  1  0  0  0  0
 36 35  1  0  0  0  0
 38 37  1  0  0  0  0
 39 37  1  0  0  0  0
 40 39  1  0  0  0  0
 41 39  1  0  0  0  0
 41 42  1  0  0  0  0
 43 44  1  0  0  0  0
 45 46  1  0  0  0  0
 45 43  1  0  0  0  0
 47 45  1  0  0  0  0
 48 47  1  0  0  0  0
 50 49  1  0  0  0  0
 51 52  1  0  0  0  0
 51 49  1  0  0  0  0
 53 51  1  0  0  0  0
 54 53  1  0  0  0  0
M  END
$$$$
