/Users/chinazoemeh/HopeMScP/data/ligands/bd2/BRD4_BD2_36_8R5H/BRD4_BD2_36_8R5H.pdb
 OpenBabel07172512173D

  7  6  0  0  0  0  0  0  0  0999 V2000
  171.8920  184.6820  133.9520 N   0  0  0  0  0  0  0  0  0  0  0  0
  172.7990  189.8390  136.0640 C   0  0  0  0  0  0  0  0  0  0  0  0
  171.3810  188.6920  134.5370 O   0  0  0  0  0  0  0  0  0  0  0  0
  171.9510  188.6800  135.6160 C   0  0  0  0  0  0  0  0  0  0  0  0
  171.7900  187.4780  136.5250 C   0  0  0  0  0  0  0  0  0  0  0  0
  171.3260  186.2510  135.7400 C   0  0  0  0  0  0  0  0  0  0  0  0
  172.4360  185.7250  134.8370 C   0  0  0  0  0  0  0  0  0  0  0  0
  1  7  1  0  0  0  0
  3  4  2  0  0  0  0
  4  2  1  0  0  0  0
  4  5  1  0  0  0  0
  6  5  1  0  0  0  0
  7  6  1  0  0  0  0
M  END
$$$$
