/Users/chinazoemeh/HopeMScP/data/ligands/bd2/BRD4_BD2_15_8WY3/BRD4_BD2_15_8WY3.pdb
 OpenBabel07172512173D

108117  0  0  0  0  0  0  0  0999 V2000
  -69.4940   27.7260    6.1500 C   0  0  0  0  0  0  0  0  0  0  0  0
  -70.0510   28.5290    7.2720 C   0  0  0  0  0  0  0  0  0  0  0  0
  -69.2580   29.1960    6.2530 C   0  0  0  0  0  0  0  0  0  0  0  0
  -67.9220   29.5670    6.7050 N   0  0  0  0  0  0  0  0  0  0  0  0
  -66.8640   29.2330    5.9460 C   0  0  0  0  0  0  0  0  0  0  0  0
  -66.9510   28.6000    4.8690 O   0  0  0  0  0  0  0  0  0  0  0  0
  -65.5640   29.6020    6.6430 C   0  0  0  0  0  0  0  0  0  0  0  0
  -64.4510   29.7970    5.6720 N   0  0  0  0  0  0  0  0  0  0  0  0
  -63.3580   30.4880    6.0230 C   0  0  0  0  0  0  0  0  0  0  0  0
  -63.4460   31.8260    6.4470 C   0  0  0  0  0  0  0  0  0  0  0  0
  -62.3450   32.5890    6.8480 C   0  0  0  0  0  0  0  0  0  0  0  0
  -62.4760   33.7710    7.2130 O   0  0  0  0  0  0  0  0  0  0  0  0
  -61.1470   32.0020    6.8290 N   0  0  0  0  0  0  0  0  0  0  0  0
  -59.9680   32.7630    7.2190 C   0  0  0  0  0  0  0  0  0  0  0  0
  -61.0210   30.6760    6.4150 C   0  0  0  0  0  0  0  0  0  0  0  0
  -62.1070   29.8760    6.0100 C   0  0  0  0  0  0  0  0  0  0  0  0
  -61.7460   28.5620    5.6200 C   0  0  0  0  0  0  0  0  0  0  0  0
  -60.9100   28.4380    4.4700 C   0  0  0  0  0  0  0  0  0  0  0  0
  -60.4160   27.2080    3.9500 C   0  0  0  0  0  0  0  0  0  0  0  0
  -59.5400   27.1400    2.8060 C   0  0  0  0  0  0  0  0  0  0  0  0
  -60.0200   26.2650    1.6550 C   0  0  0  0  0  0  0  0  0  0  0  0
  -58.2340   26.5730    3.4050 C   0  0  0  0  0  0  0  0  0  0  0  0
  -59.2570   28.4280    2.1460 O   0  0  0  0  0  0  0  0  0  0  0  0
  -60.7270   26.0550    4.6990 C   0  0  0  0  0  0  0  0  0  0  0  0
  -61.5500   26.1300    5.8400 C   0  0  0  0  0  0  0  0  0  0  0  0
  -62.0460   27.3730    6.3240 C   0  0  0  0  0  0  0  0  0  0  0  0
  -62.8040   27.5060    7.4440 O   0  0  0  0  0  0  0  0  0  0  0  0
  -63.2250   26.4120    8.1640 C   0  0  0  0  0  0  0  0  0  0  0  0
  -62.6060   26.1310    9.3950 C   0  0  0  0  0  0  0  0  0  0  0  0
  -61.5790   26.9390    9.8470 C   0  0  0  0  0  0  0  0  0  0  0  0
  -63.0500   25.0360   10.1610 C   0  0  0  0  0  0  0  0  0  0  0  0
  -64.1040   24.2250    9.6550 C   0  0  0  0  0  0  0  0  0  0  0  0
  -64.5630   23.0780   10.4090 F   0  0  0  0  0  0  0  0  0  0  0  0
  -64.7160   24.5030    8.4130 C   0  0  0  0  0  0  0  0  0  0  0  0
  -64.2850   25.6190    7.6790 C   0  0  0  0  0  0  0  0  0  0  0  0
  -64.8830   25.8970    6.4540 C   0  0  0  0  0  0  0  0  0  0  0  0
  -57.4410   17.4350   16.2170 C   0  0  0  0  0  0  0  0  0  0  0  0
  -56.3310   16.5040   15.8690 C   0  0  0  0  0  0  0  0  0  0  0  0
  -56.8450   17.5160   14.9040 C   0  0  0  0  0  0  0  0  0  0  0  0
  -57.3800   16.6910   13.8100 N   0  0  0  0  0  0  0  0  0  0  0  0
  -56.8380   16.8390   12.6310 C   0  0  0  0  0  0  0  0  0  0  0  0
  -55.9160   17.6030   12.4130 O   0  0  0  0  0  0  0  0  0  0  0  0
  -57.2890   15.9870   11.5660 C   0  0  0  0  0  0  0  0  0  0  0  0
  -57.1740   16.7370   10.2890 N   0  0  0  0  0  0  0  0  0  0  0  0
  -57.5350   16.1840    9.1170 C   0  0  0  0  0  0  0  0  0  0  0  0
  -57.8290   14.8090    9.0240 C   0  0  0  0  0  0  0  0  0  0  0  0
  -58.2630   14.2110    7.8640 C   0  0  0  0  0  0  0  0  0  0  0  0
  -58.5150   13.0030    7.8980 O   0  0  0  0  0  0  0  0  0  0  0  0
  -58.3960   14.9570    6.7710 N   0  0  0  0  0  0  0  0  0  0  0  0
  -58.8340   14.3400    5.5160 C   0  0  0  0  0  0  0  0  0  0  0  0
  -58.1100   16.3150    6.7960 C   0  0  0  0  0  0  0  0  0  0  0  0
  -57.6670   16.9780    7.9570 C   0  0  0  0  0  0  0  0  0  0  0  0
  -57.4260   18.3740    7.8100 C   0  0  0  0  0  0  0  0  0  0  0  0
  -56.4570   18.7740    6.8590 C   0  0  0  0  0  0  0  0  0  0  0  0
  -56.1790   20.1280    6.5930 C   0  0  0  0  0  0  0  0  0  0  0  0
  -55.2160   20.5670    5.6410 C   0  0  0  0  0  0  0  0  0  0  0  0
  -54.1680   21.4730    6.2900 C   0  0  0  0  0  0  0  0  0  0  0  0
  -55.9910   21.3160    4.5270 C   0  0  0  0  0  0  0  0  0  0  0  0
  -54.4240   19.5020    5.0490 O   0  0  0  0  0  0  0  0  0  0  0  0
  -56.9180   21.0800    7.2830 C   0  0  0  0  0  0  0  0  0  0  0  0
  -57.8600   20.7190    8.2200 C   0  0  0  0  0  0  0  0  0  0  0  0
  -58.1450   19.3870    8.4800 C   0  0  0  0  0  0  0  0  0  0  0  0
  -59.1040   18.9880    9.3680 O   0  0  0  0  0  0  0  0  0  0  0  0
  -59.9220   19.8710   10.0020 C   0  0  0  0  0  0  0  0  0  0  0  0
  -61.1960   20.0930    9.5080 C   0  0  0  0  0  0  0  0  0  0  0  0
  -61.6330   19.4680    8.3580 C   0  0  0  0  0  0  0  0  0  0  0  0
  -62.0130   20.9950   10.1700 C   0  0  0  0  0  0  0  0  0  0  0  0
  -61.5550   21.6500   11.3240 C   0  0  0  0  0  0  0  0  0  0  0  0
  -62.5050   22.6960   12.1390 F   0  0  0  0  0  0  0  0  0  0  0  0
  -60.2710   21.3930   11.8090 C   0  0  0  0  0  0  0  0  0  0  0  0
  -59.4430   20.5040   11.1410 C   0  0  0  0  0  0  0  0  0  0  0  0
  -58.1640   20.2610   11.6080 C   0  0  0  0  0  0  0  0  0  0  0  0
  -16.7800   15.5730  -18.3110 C   0  0  0  0  0  0  0  0  0  0  0  0
  -16.7240   15.8040  -19.7610 C   0  0  0  0  0  0  0  0  0  0  0  0
  -17.9760   16.0970  -19.0360 C   0  0  0  0  0  0  0  0  0  0  0  0
  -19.0790   15.1190  -19.2570 N   0  0  0  0  0  0  0  0  0  0  0  0
  -20.4160   15.4110  -19.2090 C   0  0  0  0  0  0  0  0  0  0  0  0
  -20.8700   16.5390  -18.9760 O   0  0  0  0  0  0  0  0  0  0  0  0
  -21.3430   14.2020  -19.4710 C   0  0  0  0  0  0  0  0  0  0  0  0
  -22.7090   14.4840  -18.9000 N   0  0  0  0  0  0  0  0  0  0  0  0
  -23.8470   13.7870  -19.1660 C   0  0  0  0  0  0  0  0  0  0  0  0
  -23.9660   13.0470  -20.3650 C   0  0  0  0  0  0  0  0  0  0  0  0
  -25.1200   12.3310  -20.6900 C   0  0  0  0  0  0  0  0  0  0  0  0
  -25.2240   11.6780  -21.7440 O   0  0  0  0  0  0  0  0  0  0  0  0
  -26.1410   12.3600  -19.8250 N   0  0  0  0  0  0  0  0  0  0  0  0
  -27.3630   11.5830  -20.2020 C   0  0  0  0  0  0  0  0  0  0  0  0
  -26.0690   13.0880  -18.6080 C   0  0  0  0  0  0  0  0  0  0  0  0
  -24.9450   13.8280  -18.2440 C   0  0  0  0  0  0  0  0  0  0  0  0
  -25.0700   14.5240  -16.9900 C   0  0  0  0  0  0  0  0  0  0  0  0
  -26.1710   15.3820  -16.7750 C   0  0  0  0  0  0  0  0  0  0  0  0
  -26.3940   16.0820  -15.5520 C   0  0  0  0  0  0  0  0  0  0  0  0
  -27.5200   16.9320  -15.4220 C   0  0  0  0  0  0  0  0  0  0  0  0
  -27.0040   18.3630  -15.1980 C   0  0  0  0  0  0  0  0  0  0  0  0
  -28.3940   16.5580  -14.2170 C   0  0  0  0  0  0  0  0  0  0  0  0
  -28.3180   16.8950  -16.6590 O   0  0  0  0  0  0  0  0  0  0  0  0
  -25.4750   15.9500  -14.4860 C   0  0  0  0  0  0  0  0  0  0  0  0
  -24.3770   15.1150  -14.6660 C   0  0  0  0  0  0  0  0  0  0  0  0
  -24.1850   14.4170  -15.8960 C   0  0  0  0  0  0  0  0  0  0  0  0
  -23.1500   13.5890  -16.1630 O   0  0  0  0  0  0  0  0  0  0  0  0
  -22.2720   13.3110  -15.1770 C   0  0  0  0  0  0  0  0  0  0  0  0
  -22.4900   12.1390  -14.4690 C   0  0  0  0  0  0  0  0  0  0  0  0
  -23.5480   11.2980  -14.7570 C   0  0  0  0  0  0  0  0  0  0  0  0
  -21.5840   11.8130  -13.4750 C   0  0  0  0  0  0  0  0  0  0  0  0
  -20.5070   12.6630  -13.1980 C   0  0  0  0  0  0  0  0  0  0  0  0
  -19.7590   12.3640  -12.3100 F   0  0  0  0  0  0  0  0  0  0  0  0
  -20.2920   13.8500  -13.8980 C   0  0  0  0  0  0  0  0  0  0  0  0
  -21.1850   14.1910  -14.9200 C   0  0  0  0  0  0  0  0  0  0  0  0
  -20.9870   15.3980  -15.6330 C   0  0  0  0  0  0  0  0  0  0  0  0
  1  3  1  0  0  0  0
  1  2  1  0  0  0  0
  3  4  1  0  0  0  0
  3  2  1  0  0  0  0
  5  7  1  0  0  0  0
  5  4  1  0  0  0  0
  6  5  2  0  0  0  0
  8  9  1  0  0  0  0
  8  7  1  0  0  0  0
  9 10  1  0  0  0  0
 10 11  1  0  0  0  0
 11 12  2  0  0  0  0
 13 11  1  0  0  0  0
 13 14  1  0  0  0  0
 15 13  1  0  0  0  0
 16  9  2  0  0  0  0
 16 15  1  0  0  0  0
 17 16  1  0  0  0  0
 17 26  1  0  0  0  0
 18 17  2  0  0  0  0
 19 18  1  0  0  0  0
 19 24  2  0  0  0  0
 20 22  1  0  0  0  0
 20 19  1  0  0  0  0
 21 20  1  0  0  0  0
 23 20  1  0  0  0  0
 24 25  1  0  0  0  0
 25 26  2  0  0  0  0
 26 27  1  0  0  0  0
 27 28  1  0  0  0  0
 28 29  1  0  0  0  0
 29 30  1  0  0  0  0
 29 31  2  0  0  0  0
 32 31  1  0  0  0  0
 32 33  1  0  0  0  0
 34 32  2  0  0  0  0
 35 28  2  0  0  0  0
 35 34  1  0  0  0  0
 36 35  1  0  0  0  0
 38 37  1  0  0  0  0
 39 38  1  0  0  0  0
 39 37  1  0  0  0  0
 40 39  1  0  0  0  0
 41 40  1  0  0  0  0
 42 41  2  0  0  0  0
 43 41  1  0  0  0  0
 44 43  1  0  0  0  0
 45 44  1  0  0  0  0
 46 45  2  0  0  0  0
 47 48  2  0  0  0  0
 47 46  1  0  0  0  0
 49 51  1  0  0  0  0
 49 47  1  0  0  0  0
 50 49  1  0  0  0  0
 51 52  2  0  0  0  0
 52 45  1  0  0  0  0
 53 52  1  0  0  0  0
 53 62  1  0  0  0  0
 54 53  2  0  0  0  0
 55 54  1  0  0  0  0
 55 60  2  0  0  0  0
 56 57  1  0  0  0  0
 56 55  1  0  0  0  0
 58 56  1  0  0  0  0
 59 56  1  0  0  0  0
 60 61  1  0  0  0  0
 61 62  2  0  0  0  0
 62 63  1  0  0  0  0
 63 64  1  0  0  0  0
 64 71  1  0  0  0  0
 65 64  2  0  0  0  0
 65 67  1  0  0  0  0
 66 65  1  0  0  0  0
 67 68  2  0  0  0  0
 68 70  1  0  0  0  0
 68 69  1  0  0  0  0
 71 72  1  0  0  0  0
 71 70  2  0  0  0  0
 74 75  1  0  0  0  0
 74 73  1  0  0  0  0
 75 73  1  0  0  0  0
 76 77  1  0  0  0  0
 76 75  1  0  0  0  0
 77 78  2  0  0  0  0
 79 77  1  0  0  0  0
 79 80  1  0  0  0  0
 81 80  1  0  0  0  0
 81 88  1  0  0  0  0
 82 81  2  0  0  0  0
 83 82  1  0  0  0  0
 83 85  1  0  0  0  0
 84 83  2  0  0  0  0
 85 87  1  0  0  0  0
 86 85  1  0  0  0  0
 87 88  2  0  0  0  0
 88 89  1  0  0  0  0
 89 90  2  0  0  0  0
 89 98  1  0  0  0  0
 90 91  1  0  0  0  0
 91 92  1  0  0  0  0
 91 96  2  0  0  0  0
 92 93  1  0  0  0  0
 92 94  1  0  0  0  0
 95 92  1  0  0  0  0
 97 96  1  0  0  0  0
 98 97  2  0  0  0  0
 99 98  1  0  0  0  0
 99100  1  0  0  0  0
100107  2  0  0  0  0
100101  1  0  0  0  0
101103  2  0  0  0  0
102101  1  0  0  0  0
103104  1  0  0  0  0
104105  1  0  0  0  0
106104  2  0  0  0  0
107106  1  0  0  0  0
108107  1  0  0  0  0
M  END
$$$$
