/Users/chinazoemeh/HopeMScP/data/ligands/bd2/BRD4_BD2_21_7USK/BRD4_BD2_21_7USK.pdb
 OpenBabel07172512173D

 16 12  0  0  0  0  0  0  0  0999 V2000
   -7.0960   -4.4980  -13.0080 C   0  0  0  0  0  0  0  0  0  0  0  0
   -7.3250   -3.4860  -14.0060 O   0  0  0  0  0  0  0  0  0  0  0  0
   -7.4820   -5.7900  -13.7240 C   0  0  0  0  0  0  0  0  0  0  0  0
   -8.6410   -6.2380  -12.9970 O   0  0  0  0  0  0  0  0  0  0  0  0
   -8.2250    5.5900  -18.8210 C   0  0  0  0  0  0  0  0  0  0  0  0
   -8.1580    4.2830  -19.4240 O   0  0  0  0  0  0  0  0  0  0  0  0
   -9.4010    5.4750  -17.8410 C   0  0  0  0  0  0  0  0  0  0  0  0
   -8.9170    6.1160  -16.6460 O   0  0  0  0  0  0  0  0  0  0  0  0
  -26.9630    4.4660   -3.3640 C   0  0  0  0  0  0  0  0  0  0  0  0
  -27.1020    4.2770   -4.7850 O   0  0  0  0  0  0  0  0  0  0  0  0
  -26.1920    5.7750   -3.2510 C   0  0  0  0  0  0  0  0  0  0  0  0
  -26.8300    6.6270   -4.2200 O   0  0  0  0  0  0  0  0  0  0  0  0
  -16.6300   11.3790  -23.3340 C   0  0  0  0  0  0  0  0  0  0  0  0
  -16.7780   10.0840  -23.9440 O   0  0  0  0  0  0  0  0  0  0  0  0
  -15.3310   11.2520  -22.5500 C   0  0  0  0  0  0  0  0  0  0  0  0
  -15.5090   10.0240  -21.8210 O   0  0  0  0  0  0  0  0  0  0  0  0
  2  1  1  0  0  0  0
  3  1  1  0  0  0  0
  3  4  1  0  0  0  0
  5  7  1  0  0  0  0
  6  5  1  0  0  0  0
  7  8  1  0  0  0  0
  9 11  1  0  0  0  0
 10  9  1  0  0  0  0
 12 11  1  0  0  0  0
 13 15  1  0  0  0  0
 14 13  1  0  0  0  0
 15 16  1  0  0  0  0
M  END
$$$$
