/Users/chinazoemeh/HopeMScP/data/ligands/bd2/BRD4_BD2_18_7USH/BRD4_BD2_18_7USH.pdb
 OpenBabel07172512173D

 20 15  0  0  0  0  0  0  0  0999 V2000
    9.1790  -15.1680   -5.2150 C   0  0  0  0  0  0  0  0  0  0  0  0
    8.9000  -16.5320   -4.8450 O   0  0  0  0  0  0  0  0  0  0  0  0
    8.0290  -14.3870   -4.5720 C   0  0  0  0  0  0  0  0  0  0  0  0
    8.0040  -13.1540   -5.3160 O   0  0  0  0  0  0  0  0  0  0  0  0
    7.5140  -16.1090    9.3930 C   0  0  0  0  0  0  0  0  0  0  0  0
    6.7360  -14.9150    9.1820 O   0  0  0  0  0  0  0  0  0  0  0  0
    8.9520  -15.6370    9.1640 C   0  0  0  0  0  0  0  0  0  0  0  0
    8.8730  -14.9100    7.9240 O   0  0  0  0  0  0  0  0  0  0  0  0
   21.9580    3.5030   13.4180 C   0  0  0  0  0  0  0  0  0  0  0  0
   21.3650    4.4460   14.3310 O   0  0  0  0  0  0  0  0  0  0  0  0
   21.6540    2.1480   14.0670 C   0  0  0  0  0  0  0  0  0  0  0  0
   22.4870    1.2310   13.3330 O   0  0  0  0  0  0  0  0  0  0  0  0
   19.6180   11.0520    8.6210 C   0  0  0  0  0  0  0  0  0  0  0  0
   19.4840    9.9190    9.4970 O   0  0  0  0  0  0  0  0  0  0  0  0
   18.2010   11.6150    8.5630 C   0  0  0  0  0  0  0  0  0  0  0  0
   18.3230   12.7430    7.6750 O   0  0  0  0  0  0  0  0  0  0  0  0
   23.6830   -4.4920   -3.3270 C   0  0  0  0  0  0  0  0  0  0  0  0
   23.1300   -5.3960   -2.3500 O   0  0  0  0  0  0  0  0  0  0  0  0
   22.4440   -3.9070   -4.0170 C   0  0  0  0  0  0  0  0  0  0  0  0
   22.9220   -2.6760   -4.5940 O   0  0  0  0  0  0  0  0  0  0  0  0
  1  2  1  0  0  0  0
  1  3  1  0  0  0  0
  4  3  1  0  0  0  0
  6  5  1  0  0  0  0
  7  5  1  0  0  0  0
  8  7  1  0  0  0  0
  9 11  1  0  0  0  0
  9 10  1  0  0  0  0
 12 11  1  0  0  0  0
 13 14  1  0  0  0  0
 15 13  1  0  0  0  0
 16 15  1  0  0  0  0
 17 18  1  0  0  0  0
 19 17  1  0  0  0  0
 20 19  1  0  0  0  0
M  END
$$$$
