/Users/chinazoemeh/HopeMScP/data/ligands/bd2/BRD4_BD2_28_6U8I/BRD4_BD2_28_6U8I.pdb
 OpenBabel07172512173D

  3  2  0  0  0  0  0  0  0  0999 V2000
    6.4330   -1.4470    7.2770 C   0  0  0  0  0  0  0  0  0  0  0  0
    7.5430   -1.6880    7.7530 O   0  0  0  0  0  0  0  0  0  0  0  0
    5.8410   -0.0710    7.2590 C   0  0  0  0  0  0  0  0  0  0  0  0
  1  2  2  0  0  0  0
  3  1  1  0  0  0  0
M  END
$$$$
