/Users/chinazoemeh/HopeMScP/data/ligands/bd2/BRD4_BD2_3_7RUH/BRD4_BD2_3_7RUH.pdb
 OpenBabel07172512173D

 20 18  0  0  1  0  0  0  0  0999 V2000
    5.1040   -5.1950   15.9560 N   0  0  0  0  0  0  0  0  0  0  0  0
    3.8700   -4.6550   15.4160 C   0  0  1  0  0  0  0  0  0  0  0  0
    4.0120   -3.1550   15.1600 C   0  0  0  0  0  0  0  0  0  0  0  0
    2.6510   -2.4700   14.2620 S   0  0  0  0  0  0  0  0  0  0  0  0
    1.0840   -2.8430   15.4500 S   0  0  0  0  0  0  0  0  0  0  0  0
    1.0010   -1.3400   16.3610 C   0  0  0  0  0  0  0  0  0  0  0  0
   -0.4280   -0.8260   16.2960 C   0  0  0  0  0  0  0  0  0  0  0  0
   -1.2890   -1.8340   16.8360 O   0  0  0  0  0  0  0  0  0  0  0  0
    3.5260   -5.4180   14.1590 C   0  0  0  0  0  0  0  0  0  0  0  0
    2.3460   -5.7580   13.9780 O   0  0  0  0  0  0  0  0  0  0  0  0
    1.3420  -17.8600  -13.5060 N   0  0  0  0  0  0  0  0  0  0  0  0
    2.7910  -17.7310  -13.4420 C   0  0  1  0  0  0  0  0  0  0  0  0
    3.4850  -19.0890  -13.3750 C   0  0  0  0  0  0  0  0  0  0  0  0
    3.0950  -19.8620  -11.8340 S   0  0  0  0  0  0  0  0  0  0  0  0
    3.6160  -18.5510  -10.4110 S   0  0  0  0  0  0  0  0  0  0  0  0
    5.3770  -18.5790  -10.5190 C   0  0  0  0  0  0  0  0  0  0  0  0
    5.9430  -17.1720  -10.6800 C   0  0  0  0  0  0  0  0  0  0  0  0
    5.8790  -16.7490  -12.0440 O   0  0  0  0  0  0  0  0  0  0  0  0
    3.2920  -16.8010  -14.5220 C   0  0  0  0  0  0  0  0  0  0  0  0
    4.3040  -16.1120  -14.3090 O   0  0  0  0  0  0  0  0  0  0  0  0
  2  1  1  6  0  0  0
  3  2  1  0  0  0  0
  4  3  1  0  0  0  0
  4  5  1  0  0  0  0
  5  6  1  0  0  0  0
  7  6  1  0  0  0  0
  7  8  1  0  0  0  0
  9  2  1  0  0  0  0
 10  9  2  0  0  0  0
 12 11  1  6  0  0  0
 12 13  1  0  0  0  0
 13 14  1  0  0  0  0
 14 15  1  0  0  0  0
 16 15  1  0  0  0  0
 17 16  1  0  0  0  0
 18 17  1  0  0  0  0
 19 20  2  0  0  0  0
 19 12  1  0  0  0  0
M  END
$$$$
