/Users/chinazoemeh/HopeMScP/data/ligands/bd2/BRD4_BD2_25_6U8G/BRD4_BD2_25_6U8G.pdb
 OpenBabel07172512173D

 48 44  0  0  1  0  0  0  0  0999 V2000
   -9.6490    2.8920   66.5510 O   0  0  0  0  0  0  0  0  0  0  0  0
   -8.7020    3.6700   66.7780 C   0  0  0  0  0  0  0  0  0  0  0  0
   -7.5690    3.2900   67.7010 C   0  0  0  0  0  0  0  0  0  0  0  0
   -8.6340    4.9220   66.1940 N   0  0  0  0  0  0  0  0  0  0  0  0
   -9.6210    5.4430   65.2920 C   0  0  0  0  0  0  0  0  0  0  0  0
   -9.1020    6.5760   64.4040 C   0  0  0  0  0  0  0  0  0  0  0  0
   -8.2790    7.5340   65.2390 C   0  0  0  0  0  0  0  0  0  0  0  0
   -7.5780    8.5550   64.3710 C   0  0  0  0  0  0  0  0  0  0  0  0
   -8.5830    9.4140   63.5850 C   0  0  2  0  0  0  0  0  0  0  0  0
   -8.6450    9.0670   62.1750 N   0  0  0  0  0  0  0  0  0  0  0  0
   -8.2100   10.8640   63.8730 C   0  0  0  0  0  0  0  0  0  0  0  0
   -7.3890   11.2010   64.7290 O   0  0  0  0  0  0  0  0  0  0  0  0
    0.6750    6.2720   46.7440 O   0  0  0  0  0  0  0  0  0  0  0  0
    1.5070    6.3420   45.8170 C   0  0  0  0  0  0  0  0  0  0  0  0
    2.4040    5.1790   45.4710 C   0  0  0  0  0  0  0  0  0  0  0  0
    1.6540    7.4910   45.0590 N   0  0  0  0  0  0  0  0  0  0  0  0
    0.8800    8.6820   45.2580 C   0  0  0  0  0  0  0  0  0  0  0  0
   -0.5380    8.6110   44.6860 C   0  0  0  0  0  0  0  0  0  0  0  0
   -1.2790    9.8910   45.0030 C   0  0  0  0  0  0  0  0  0  0  0  0
   -2.6650    9.8900   44.4000 C   0  0  0  0  0  0  0  0  0  0  0  0
   -3.4850   11.0980   44.8860 C   0  0  2  0  0  0  0  0  0  0  0  0
   -3.9560   10.9800   46.2490 N   0  0  0  0  0  0  0  0  0  0  0  0
   -4.6440   11.2710   43.9190 C   0  0  0  0  0  0  0  0  0  0  0  0
   -4.5440   11.8050   42.8120 O   0  0  0  0  0  0  0  0  0  0  0  0
   56.7960   25.3880  -10.4390 O   0  0  0  0  0  0  0  0  0  0  0  0
   55.8070   26.1240  -10.6260 C   0  0  0  0  0  0  0  0  0  0  0  0
   54.6710   25.7040  -11.5270 C   0  0  0  0  0  0  0  0  0  0  0  0
   55.7000   27.3640  -10.0200 N   0  0  0  0  0  0  0  0  0  0  0  0
   56.6940   27.9040   -9.1380 C   0  0  0  0  0  0  0  0  0  0  0  0
   56.4560   29.3640   -8.7430 C   0  0  0  0  0  0  0  0  0  0  0  0
   55.0980   29.5060   -8.0880 C   0  0  0  0  0  0  0  0  0  0  0  0
   54.6750   30.9570   -8.0340 C   0  0  0  0  0  0  0  0  0  0  0  0
   55.6680   31.8010   -7.2160 C   0  0  2  0  0  0  0  0  0  0  0  0
   55.6570   31.4930   -5.7970 N   0  0  0  0  0  0  0  0  0  0  0  0
   55.3560   33.2580   -7.5310 C   0  0  0  0  0  0  0  0  0  0  0  0
   54.7000   33.6210   -8.5100 O   0  0  0  0  0  0  0  0  0  0  0  0
   45.8810   28.4770    9.2800 O   0  0  0  0  0  0  0  0  0  0  0  0
   45.3300   28.6290   10.3880 C   0  0  0  0  0  0  0  0  0  0  0  0
   44.4060   27.5800   10.9580 C   0  0  0  0  0  0  0  0  0  0  0  0
   45.5370   29.7650   11.1510 N   0  0  0  0  0  0  0  0  0  0  0  0
   46.3860   30.8460   10.7410 C   0  0  0  0  0  0  0  0  0  0  0  0
   47.4500   31.2410   11.7690 C   0  0  0  0  0  0  0  0  0  0  0  0
   48.3890   32.2600   11.1600 C   0  0  0  0  0  0  0  0  0  0  0  0
   49.4490   32.6800   12.1510 C   0  0  0  0  0  0  0  0  0  0  0  0
   50.3120   33.8300   11.6030 C   0  0  2  0  0  0  0  0  0  0  0  0
   50.8110   33.6180   10.2610 N   0  0  0  0  0  0  0  0  0  0  0  0
   51.4610   34.0280   12.5750 C   0  0  0  0  0  0  0  0  0  0  0  0
   51.3710   34.6590   13.6310 O   0  0  0  0  0  0  0  0  0  0  0  0
  1  2  2  0  0  0  0
  2  3  1  0  0  0  0
  4  2  1  0  0  0  0
  5  4  1  0  0  0  0
  6  7  1  0  0  0  0
  6  5  1  0  0  0  0
  8  7  1  0  0  0  0
  9 10  1  6  0  0  0
  9 11  1  0  0  0  0
  9  8  1  0  0  0  0
 11 12  2  0  0  0  0
 14 13  2  0  0  0  0
 15 14  1  0  0  0  0
 16 17  1  0  0  0  0
 16 14  1  0  0  0  0
 18 19  1  0  0  0  0
 18 17  1  0  0  0  0
 20 21  1  0  0  0  0
 20 19  1  0  0  0  0
 21 22  1  1  0  0  0
 23 21  1  0  0  0  0
 24 23  2  0  0  0  0
 26 25  2  0  0  0  0
 26 28  1  0  0  0  0
 27 26  1  0  0  0  0
 28 29  1  0  0  0  0
 29 30  1  0  0  0  0
 30 31  1  0  0  0  0
 31 32  1  0  0  0  0
 32 33  1  0  0  0  0
 33 34  1  1  0  0  0
 35 33  1  0  0  0  0
 36 35  2  0  0  0  0
 37 38  2  0  0  0  0
 38 39  1  0  0  0  0
 38 40  1  0  0  0  0
 41 40  1  0  0  0  0
 41 42  1  0  0  0  0
 43 42  1  0  0  0  0
 43 44  1  0  0  0  0
 45 46  1  6  0  0  0
 45 44  1  0  0  0  0
 45 47  1  0  0  0  0
 47 48  2  0  0  0  0
M  END
$$$$
