/Users/chinazoemeh/HopeMScP/data/ligands/bd2/BRD4_BD2_13_7WKY/BRD4_BD2_13_7WKY.pdb
 OpenBabel07172512173D

 36 30  0  0  0  0  0  0  0  0999 V2000
  -63.2320   46.9390    4.9630 C   0  0  0  0  0  0  0  0  0  0  0  0
  -63.0000   46.9000    6.3780 O   0  0  0  0  0  0  0  0  0  0  0  0
  -63.6870   45.5360    4.5640 C   0  0  0  0  0  0  0  0  0  0  0  0
  -64.3440   45.4760    3.2910 O   0  0  0  0  0  0  0  0  0  0  0  0
  -62.4940   44.5830    4.5750 C   0  0  0  0  0  0  0  0  0  0  0  0
  -61.7100   44.5560    3.3810 O   0  0  0  0  0  0  0  0  0  0  0  0
  -67.2460   26.5160   11.1730 C   0  0  0  0  0  0  0  0  0  0  0  0
  -67.9420   25.4360   10.5530 O   0  0  0  0  0  0  0  0  0  0  0  0
  -66.6980   27.4450   10.0820 C   0  0  0  0  0  0  0  0  0  0  0  0
  -67.7190   28.2940    9.5470 O   0  0  0  0  0  0  0  0  0  0  0  0
  -65.5770   28.3200   10.6260 C   0  0  0  0  0  0  0  0  0  0  0  0
  -65.7380   28.5430   12.0240 O   0  0  0  0  0  0  0  0  0  0  0  0
  -65.9590   39.3650   16.1440 C   0  0  0  0  0  0  0  0  0  0  0  0
  -67.1770   38.6600   15.7740 O   0  0  0  0  0  0  0  0  0  0  0  0
  -65.6660   39.5690   17.6460 C   0  0  0  0  0  0  0  0  0  0  0  0
  -65.6980   38.3040   18.3430 O   0  0  0  0  0  0  0  0  0  0  0  0
  -64.3300   40.3310   17.8270 C   0  0  0  0  0  0  0  0  0  0  0  0
  -63.2210   39.5170   18.2480 O   0  0  0  0  0  0  0  0  0  0  0  0
  -60.6360   17.3760   14.3180 C   0  0  0  0  0  0  0  0  0  0  0  0
  -59.8170   18.4510   14.7850 O   0  0  0  0  0  0  0  0  0  0  0  0
  -61.7120   17.9500   13.4080 C   0  0  0  0  0  0  0  0  0  0  0  0
  -62.3220   16.8360   12.7560 O   0  0  0  0  0  0  0  0  0  0  0  0
  -62.7310   18.8010   14.1930 C   0  0  0  0  0  0  0  0  0  0  0  0
  -63.7860   17.9860   14.7440 O   0  0  0  0  0  0  0  0  0  0  0  0
  -53.1720   24.1500    2.4990 C   0  0  0  0  0  0  0  0  0  0  0  0
  -51.9950   23.3320    2.3970 O   0  0  0  0  0  0  0  0  0  0  0  0
  -54.2010   23.9260    1.3790 C   0  0  0  0  0  0  0  0  0  0  0  0
  -53.6650   23.2690    0.2160 O   0  0  0  0  0  0  0  0  0  0  0  0
  -54.7640   25.2780    0.9560 C   0  0  0  0  0  0  0  0  0  0  0  0
  -55.9970   25.1160    0.2540 O   0  0  0  0  0  0  0  0  0  0  0  0
  -18.2190   10.5960   -6.5190 C   0  0  0  0  0  0  0  0  0  0  0  0
  -18.7300    9.4510   -7.1870 O   0  0  0  0  0  0  0  0  0  0  0  0
  -19.0300   10.9100   -5.2650 C   0  0  0  0  0  0  0  0  0  0  0  0
  -18.4340   12.0430   -4.6390 O   0  0  0  0  0  0  0  0  0  0  0  0
  -19.0330    9.7540   -4.2700 C   0  0  0  0  0  0  0  0  0  0  0  0
  -20.2090    8.9720   -4.4830 O   0  0  0  0  0  0  0  0  0  0  0  0
  1  2  1  0  0  0  0
  3  5  1  0  0  0  0
  3  1  1  0  0  0  0
  4  3  1  0  0  0  0
  6  5  1  0  0  0  0
  8  7  1  0  0  0  0
  9 11  1  0  0  0  0
  9  7  1  0  0  0  0
 10  9  1  0  0  0  0
 11 12  1  0  0  0  0
 13 15  1  0  0  0  0
 14 13  1  0  0  0  0
 15 17  1  0  0  0  0
 15 16  1  0  0  0  0
 17 18  1  0  0  0  0
 19 20  1  0  0  0  0
 21 23  1  0  0  0  0
 21 19  1  0  0  0  0
 22 21  1  0  0  0  0
 23 24  1  0  0  0  0
 26 25  1  0  0  0  0
 27 25  1  0  0  0  0
 28 27  1  0  0  0  0
 29 27  1  0  0  0  0
 30 29  1  0  0  0  0
 31 33  1  0  0  0  0
 32 31  1  0  0  0  0
 33 34  1  0  0  0  0
 33 35  1  0  0  0  0
 36 35  1  0  0  0  0
M  END
$$$$
