/Users/chinazoemeh/HopeMScP/data/ligands/bd2/BRD4_BD2_4_7AQT/BRD4_BD2_4_7AQT.pdb
 OpenBabel07172512173D

 52 55  0  0  1  0  0  0  0  0999 V2000
  -16.0890  -24.6480  -25.0080 Cl  0  0  0  0  0  0  0  0  0  0  0  0
  -16.5730  -23.0800  -24.4050 C   0  0  0  0  0  0  0  0  0  0  0  0
  -15.8570  -22.4420  -23.3930 C   0  0  0  0  0  0  0  0  0  0  0  0
  -16.2760  -21.1920  -22.9260 C   0  0  0  0  0  0  0  0  0  0  0  0
  -17.7000  -22.4680  -24.9310 C   0  0  0  0  0  0  0  0  0  0  0  0
  -18.1140  -21.2350  -24.4620 C   0  0  0  0  0  0  0  0  0  0  0  0
  -17.4120  -20.5730  -23.4590 C   0  0  0  0  0  0  0  0  0  0  0  0
  -17.8200  -19.3040  -23.0020 C   0  0  0  0  0  0  0  0  0  0  0  0
  -19.0500  -19.2440  -22.4770 N   0  0  0  0  0  0  0  0  0  0  0  0
  -16.9720  -18.1820  -22.9790 C   0  0  0  0  0  0  0  0  0  0  0  0
  -16.8950  -17.2530  -21.9270 C   0  0  0  0  0  0  0  0  0  0  0  0
  -16.0030  -16.1650  -22.0370 C   0  0  0  0  0  0  0  0  0  0  0  0
  -15.1920  -16.0390  -23.1630 C   0  0  0  0  0  0  0  0  0  0  0  0
  -15.2670  -16.9790  -24.2010 C   0  0  0  0  0  0  0  0  0  0  0  0
  -14.5050  -16.9300  -25.3470 O   0  0  0  0  0  0  0  0  0  0  0  0
  -14.6760  -15.7830  -26.2030 C   0  0  0  0  0  0  0  0  0  0  0  0
  -16.1510  -18.0450  -24.1020 C   0  0  0  0  0  0  0  0  0  0  0  0
  -17.6630  -17.2960  -20.7930 N   0  0  0  0  0  0  0  0  0  0  0  0
  -18.9660  -17.6430  -20.8090 C   0  0  0  0  0  0  0  0  0  0  0  0
  -19.4570  -17.6070  -19.5640 N   0  0  0  0  0  0  0  0  0  0  0  0
  -18.4550  -17.2430  -18.7220 N   0  0  0  0  0  0  0  0  0  0  0  0
  -17.3640  -17.0770  -19.4900 C   0  0  0  0  0  0  0  0  0  0  0  0
  -15.9780  -16.6610  -18.9620 C   0  0  0  0  0  0  0  0  0  0  0  0
  -19.6960  -18.0000  -21.9640 C   0  0  1  0  0  0  0  0  0  0  0  0
  -21.2080  -18.2540  -21.8420 C   0  0  0  0  0  0  0  0  0  0  0  0
  -21.7630  -18.2000  -23.2980 C   0  0  0  0  0  0  0  0  0  0  0  0
  -21.1130  -17.6370  -24.1850 O   0  0  0  0  0  0  0  0  0  0  0  0
  -22.9160  -18.8550  -23.5340 N   0  0  0  0  0  0  0  0  0  0  0  0
  -23.1720  -20.2140  -22.9820 C   0  0  0  0  0  0  0  0  0  0  0  0
  -21.8870  -21.0470  -22.9850 C   0  0  0  0  0  0  0  0  0  0  0  0
  -14.9810  -22.9120  -22.9710 H   0  0  0  0  0  0  0  0  0  0  0  0
  -15.7170  -20.6990  -22.1450 H   0  0  0  0  0  0  0  0  0  0  0  0
  -18.2590  -22.9590  -25.7130 H   0  0  0  0  0  0  0  0  0  0  0  0
  -18.9970  -20.7780  -24.8820 H   0  0  0  0  0  0  0  0  0  0  0  0
  -15.9500  -15.4300  -21.2480 H   0  0  0  0  0  0  0  0  0  0  0  0
  -14.5000  -15.2130  -23.2370 H   0  0  0  0  0  0  0  0  0  0  0  0
  -13.7370  -15.5650  -26.7100 H   0  0  0  0  0  0  0  0  0  0  0  0
  -15.4480  -15.9950  -26.9430 H   0  0  0  0  0  0  0  0  0  0  0  0
  -14.9740  -14.9230  -25.6030 H   0  0  0  0  0  0  0  0  0  0  0  0
  -16.2050  -18.7720  -24.8980 H   0  0  0  0  0  0  0  0  0  0  0  0
  -15.9720  -16.7180  -17.8740 H   0  0  0  0  0  0  0  0  0  0  0  0
  -15.7630  -15.6390  -19.2740 H   0  0  0  0  0  0  0  0  0  0  0  0
  -15.2190  -17.3310  -19.3650 H   0  0  0  0  0  0  0  0  0  0  0  0
  -19.5480  -17.2170  -22.7080 H   0  0  0  0  0  0  0  0  0  0  0  0
  -21.3890  -19.2380  -21.4090 H   0  0  0  0  0  0  0  0  0  0  0  0
  -21.6750  -17.4830  -21.2290 H   0  0  0  0  0  0  0  0  0  0  0  0
  -23.6260  -18.4120  -24.1000 H   0  0  0  0  0  0  0  0  0  0  0  0
  -23.5370  -20.1230  -21.9590 H   0  0  0  0  0  0  0  0  0  0  0  0
  -23.9260  -20.7140  -23.5900 H   0  0  0  0  0  0  0  0  0  0  0  0
  -21.5050  -21.1300  -21.9680 H   0  0  0  0  0  0  0  0  0  0  0  0
  -21.1410  -20.5620  -23.6140 H   0  0  0  0  0  0  0  0  0  0  0  0
  -22.1000  -22.0420  -23.3760 H   0  0  0  0  0  0  0  0  0  0  0  0
  1  2  1  0  0  0  0
  2  3  1  0  0  0  0
  3 31  1  0  0  0  0
  3  4  2  0  0  0  0
  4 32  1  0  0  0  0
  5  6  1  0  0  0  0
  5  2  2  0  0  0  0
  6  7  2  0  0  0  0
  7  8  1  0  0  0  0
  7  4  1  0  0  0  0
  8 10  1  0  0  0  0
  8  9  2  3  0  0  0
  9 24  1  0  0  0  0
 10 11  1  0  0  0  0
 11 18  1  0  0  0  0
 12 11  2  0  0  0  0
 12 35  1  0  0  0  0
 13 12  1  0  0  0  0
 14 17  1  0  0  0  0
 14 13  2  0  0  0  0
 15 14  1  0  0  0  0
 16 39  1  0  0  0  0
 16 15  1  0  0  0  0
 17 10  2  0  0  0  0
 18 22  1  0  0  0  0
 19 18  1  0  0  0  0
 19 20  2  0  0  0  0
 20 21  1  0  0  0  0
 22 23  1  0  0  0  0
 22 21  2  0  0  0  0
 23 41  1  0  0  0  0
 24 44  1  1  0  0  0
 24 25  1  0  0  0  0
 24 19  1  0  0  0  0
 25 45  1  0  0  0  0
 25 46  1  0  0  0  0
 26 25  1  0  0  0  0
 27 26  2  0  0  0  0
 28 26  1  0  0  0  0
 28 29  1  0  0  0  0
 29 48  1  0  0  0  0
 30 29  1  0  0  0  0
 30 50  1  0  0  0  0
 33  5  1  0  0  0  0
 34  6  1  0  0  0  0
 36 13  1  0  0  0  0
 37 16  1  0  0  0  0
 38 16  1  0  0  0  0
 40 17  1  0  0  0  0
 42 23  1  0  0  0  0
 43 23  1  0  0  0  0
 47 28  1  0  0  0  0
 49 29  1  0  0  0  0
 51 30  1  0  0  0  0
 52 30  1  0  0  0  0
M  END
$$$$
