/Users/chinazoemeh/HopeMScP/data/ligands/bd2/BRD4_BD2_26_7JKZ/BRD4_BD2_26_7JKZ.pdb
 OpenBabel07172512173D

 44 49  0  0  0  0  0  0  0  0999 V2000
  -34.7280   -7.0400    0.8390 C   0  0  0  0  0  0  0  0  0  0  0  0
  -35.4370   -6.6890    1.9940 C   0  0  0  0  0  0  0  0  0  0  0  0
  -36.7530   -7.1370    2.1720 C   0  0  0  0  0  0  0  0  0  0  0  0
  -37.3410   -7.9200    1.1640 C   0  0  0  0  0  0  0  0  0  0  0  0
  -36.6450   -8.2430    0.0160 C   0  0  0  0  0  0  0  0  0  0  0  0
  -35.3540   -7.7610   -0.1710 C   0  0  0  0  0  0  0  0  0  0  0  0
  -34.6170   -8.1650   -1.3930 C   0  0  0  0  0  0  0  0  0  0  0  0
  -34.7470   -9.4650   -1.8520 C   0  0  0  0  0  0  0  0  0  0  0  0
  -34.0360   -9.8950   -2.9730 C   0  0  0  0  0  0  0  0  0  0  0  0
  -33.1960   -9.0380   -3.6710 C   0  0  0  0  0  0  0  0  0  0  0  0
  -33.0930   -7.7440   -3.1530 N   0  0  0  0  0  0  0  0  0  0  0  0
  -33.8070   -7.3140   -2.0510 C   0  0  0  0  0  0  0  0  0  0  0  0
  -34.2080  -11.2090   -3.3830 N   0  0  0  0  0  0  0  0  0  0  0  0
  -35.1480  -12.1440   -2.7730 C   0  0  0  0  0  0  0  0  0  0  0  0
  -36.5750  -11.8480   -3.1750 C   0  0  0  0  0  0  0  0  0  0  0  0
  -37.5180  -12.8470   -2.5370 C   0  0  0  0  0  0  0  0  0  0  0  0
  -37.1510  -14.1980   -2.9680 N   0  0  0  0  0  0  0  0  0  0  0  0
  -35.8070  -14.5220   -2.4900 C   0  0  0  0  0  0  0  0  0  0  0  0
  -34.7840  -13.5790   -3.0880 C   0  0  0  0  0  0  0  0  0  0  0  0
  -32.2110   -6.7940   -3.8300 C   0  0  0  0  0  0  0  0  0  0  0  0
  -32.5490   -9.3530   -4.6650 O   0  0  0  0  0  0  0  0  0  0  0  0
  -37.7120   -7.0270    3.2190 C   0  0  0  0  0  0  0  0  0  0  0  0
  -38.8320   -7.6650    2.7940 C   0  0  0  0  0  0  0  0  0  0  0  0
  -38.6220   -8.2400    1.5630 N   0  0  0  0  0  0  0  0  0  0  0  0
  -34.8160   -5.9430    3.0100 N   0  0  0  0  0  0  0  0  0  0  0  0
  -33.2080   -5.9370    3.3660 S   0  0  0  0  0  0  0  0  0  0  0  0
  -32.4950   -4.6280    2.2950 C   0  0  0  0  0  0  0  0  0  0  0  0
  -33.1830   -3.2770    2.5000 C   0  0  0  0  0  0  0  0  0  0  0  0
  -32.5490   -7.1600    3.0200 O   0  0  0  0  0  0  0  0  0  0  0  0
  -33.1860   -5.4860    4.7120 O   0  0  0  0  0  0  0  0  0  0  0  0
  -39.5740   -9.0700    0.8110 C   0  0  0  0  0  0  0  0  0  0  0  0
  -39.0360  -10.5100    0.6540 C   0  0  0  0  0  0  0  0  0  0  0  0
  -40.9020   -9.1480    1.5680 C   0  0  0  0  0  0  0  0  0  0  0  0
  -39.8450   -8.4880   -0.5740 C   0  0  0  0  0  0  0  0  0  0  0  0
  -41.9190   -8.4870    1.0260 N   0  0  0  0  0  0  0  0  0  0  0  0
  -43.1000   -8.5230    1.6750 C   0  0  0  0  0  0  0  0  0  0  0  0
  -43.2990   -9.1840    2.8740 C   0  0  0  0  0  0  0  0  0  0  0  0
  -42.2340   -9.8560    3.4270 C   0  0  0  0  0  0  0  0  0  0  0  0
  -41.0190   -9.8520    2.7650 C   0  0  0  0  0  0  0  0  0  0  0  0
  -40.1060   -9.2960   -1.6620 C   0  0  0  0  0  0  0  0  0  0  0  0
  -40.3450   -8.7040   -2.8810 C   0  0  0  0  0  0  0  0  0  0  0  0
  -40.2730   -7.3320   -2.9930 C   0  0  0  0  0  0  0  0  0  0  0  0
  -39.9950   -6.5960   -1.8650 C   0  0  0  0  0  0  0  0  0  0  0  0
  -39.7810   -7.1550   -0.6640 N   0  0  0  0  0  0  0  0  0  0  0  0
  1  2  1  0  0  0  0
  2  3  2  0  0  0  0
  2 25  1  0  0  0  0
  3 22  1  0  0  0  0
  4 24  1  0  0  0  0
  4  3  1  0  0  0  0
  5  4  2  0  0  0  0
  6  5  1  0  0  0  0
  6  1  2  0  0  0  0
  7  6  1  0  0  0  0
  8  7  1  0  0  0  0
  9  8  2  0  0  0  0
 10 11  1  0  0  0  0
 10  9  1  0  0  0  0
 11 12  1  0  0  0  0
 12  7  2  0  0  0  0
 13  9  1  0  0  0  0
 13 14  1  0  0  0  0
 15 14  1  0  0  0  0
 15 16  1  0  0  0  0
 17 16  1  0  0  0  0
 17 18  1  0  0  0  0
 19 14  1  0  0  0  0
 19 18  1  0  0  0  0
 20 11  1  0  0  0  0
 21 10  2  0  0  0  0
 23 22  2  0  0  0  0
 24 23  1  0  0  0  0
 25 26  1  0  0  0  0
 26 30  2  0  0  0  0
 27 28  1  0  0  0  0
 27 26  1  0  0  0  0
 29 26  2  0  0  0  0
 31 24  1  0  0  0  0
 31 33  1  0  0  0  0
 32 31  1  0  0  0  0
 33 39  1  0  0  0  0
 34 31  1  0  0  0  0
 35 33  2  0  0  0  0
 35 36  1  0  0  0  0
 36 37  2  0  0  0  0
 37 38  1  0  0  0  0
 39 38  2  0  0  0  0
 40 34  2  0  0  0  0
 41 40  1  0  0  0  0
 42 41  2  0  0  0  0
 42 43  1  0  0  0  0
 43 44  2  0  0  0  0
 44 34  1  0  0  0  0
M  END
$$$$
