/Users/chinazoemeh/HopeMScP/data/ligands/bd2/BRD4_BD2_27_6U6L/BRD4_BD2_27_6U6L.pdb
 OpenBabel07172512173D

 36 33  0  0  1  0  0  0  0  0999 V2000
  -15.9430  -17.9560   11.4560 O   0  0  0  0  0  0  0  0  0  0  0  0
  -15.8860  -16.8420   10.8970 C   0  0  0  0  0  0  0  0  0  0  0  0
  -15.4990  -16.7100    9.4430 C   0  0  0  0  0  0  0  0  0  0  0  0
  -16.1680  -15.6710   11.5770 N   0  0  0  0  0  0  0  0  0  0  0  0
  -16.5510  -15.6250   12.9590 C   0  0  0  0  0  0  0  0  0  0  0  0
  -18.0030  -16.0390   13.2160 C   0  0  0  0  0  0  0  0  0  0  0  0
  -18.9410  -15.0620   12.5380 C   0  0  0  0  0  0  0  0  0  0  0  0
  -18.9790  -13.7450   13.2810 C   0  0  0  0  0  0  0  0  0  0  0  0
  -20.0000  -13.7760   14.4320 C   0  0  2  0  0  0  0  0  0  0  0  0
  -21.3700  -13.9820   14.0010 N   0  0  0  0  0  0  0  0  0  0  0  0
  -19.8440  -12.4770   15.2090 C   0  0  0  0  0  0  0  0  0  0  0  0
  -18.9530  -11.6490   15.0040 O   0  0  0  0  0  0  0  0  0  0  0  0
  -19.8040   -6.3520    8.1670 O   0  0  0  0  0  0  0  0  0  0  0  0
  -19.1920   -6.1890    9.2420 C   0  0  0  0  0  0  0  0  0  0  0  0
  -17.6840   -6.2550    9.3040 C   0  0  0  0  0  0  0  0  0  0  0  0
  -19.8610   -5.9370   10.4270 N   0  0  0  0  0  0  0  0  0  0  0  0
  -21.2900   -5.8450   10.5290 C   0  0  0  0  0  0  0  0  0  0  0  0
  -21.9690   -7.1420   10.9780 C   0  0  0  0  0  0  0  0  0  0  0  0
  -21.9910   -7.2090   12.4900 C   0  0  0  0  0  0  0  0  0  0  0  0
  -21.8160   -8.6320   12.9710 C   0  0  0  0  0  0  0  0  0  0  0  0
  -22.2170   -8.7820   14.4470 C   0  0  2  0  0  0  0  0  0  0  0  0
  -21.6160   -9.9090   15.1250 N   0  0  0  0  0  0  0  0  0  0  0  0
  -23.7300   -8.9040   14.5000 C   0  0  0  0  0  0  0  0  0  0  0  0
  -24.3790   -9.7210   13.8440 O   0  0  0  0  0  0  0  0  0  0  0  0
  -32.0380    2.4600    3.6290 O   0  0  0  0  0  0  0  0  0  0  0  0
  -31.4450    1.4400    3.2260 C   0  0  0  0  0  0  0  0  0  0  0  0
  -30.4300    1.5090    2.1100 C   0  0  0  0  0  0  0  0  0  0  0  0
  -31.6840    0.1940    3.7800 N   0  0  0  0  0  0  0  0  0  0  0  0
  -32.6170   -0.0360    4.8460 C   0  0  0  0  0  0  0  0  0  0  0  0
  -32.7670   -1.5080    5.2390 C   0  0  0  0  0  0  0  0  0  0  0  0
  -34.2280   -1.9030    5.2010 C   0  0  0  0  0  0  0  0  0  0  0  0
  -34.3910   -3.4010    5.3320 C   0  0  0  0  0  0  0  0  0  0  0  0
  -34.6870   -3.8240    6.7820 C   0  0  2  0  0  0  0  0  0  0  0  0
  -33.8030   -4.8500    7.2940 N   0  0  0  0  0  0  0  0  0  0  0  0
  -36.1350   -4.2870    6.8320 C   0  0  0  0  0  0  0  0  0  0  0  0
  -37.1020   -3.5230    6.8840 O   0  0  0  0  0  0  0  0  0  0  0  0
  2  1  2  0  0  0  0
  2  4  1  0  0  0  0
  3  2  1  0  0  0  0
  4  5  1  0  0  0  0
  5  6  1  0  0  0  0
  7  6  1  0  0  0  0
  7  8  1  0  0  0  0
  8  9  1  0  0  0  0
  9 10  1  6  0  0  0
  9 11  1  0  0  0  0
 12 11  2  0  0  0  0
 13 14  2  0  0  0  0
 14 15  1  0  0  0  0
 14 16  1  0  0  0  0
 16 17  1  0  0  0  0
 17 18  1  0  0  0  0
 18 19  1  0  0  0  0
 19 20  1  0  0  0  0
 20 21  1  0  0  0  0
 21 23  1  0  0  0  0
 21 22  1  6  0  0  0
 24 23  2  0  0  0  0
 26 25  2  0  0  0  0
 26 28  1  0  0  0  0
 27 26  1  0  0  0  0
 28 29  1  0  0  0  0
 29 30  1  0  0  0  0
 31 30  1  0  0  0  0
 31 32  1  0  0  0  0
 32 33  1  0  0  0  0
 33 35  1  0  0  0  0
 33 34  1  6  0  0  0
 35 36  2  0  0  0  0
M  END
$$$$
