/Users/chinazoemeh/HopeMScP/data/ligands/BRD4-BD1_BRD4-BD1_66_7K6H/BRD4-BD1_BRD4-BD1_66_7K6H.pdb
 OpenBabel07142514423D

 65 69  0  0  0  0  0  0  0  0999 V2000
  -19.8080    5.6490   -8.3370 C   0  0  0  0  0  0  0  0  0  0  0  0
  -19.8080    7.6960   -7.0830 C   0  0  0  0  0  0  0  0  0  0  0  0
  -20.6550    7.1410   -6.1060 C   0  0  0  0  0  0  0  0  0  0  0  0
  -20.9050    7.9300   -4.9090 C   0  0  0  0  0  0  0  0  0  0  0  0
  -20.3100    9.2410   -4.7020 C   0  0  0  0  0  0  0  0  0  0  0  0
  -19.4860    9.7210   -5.7260 C   0  0  0  0  0  0  0  0  0  0  0  0
  -19.2330    8.9610   -6.8980 C   0  0  0  0  0  0  0  0  0  0  0  0
  -17.6430   10.4180   -8.0370 C   0  0  0  0  0  0  0  0  0  0  0  0
  -16.5930   12.3840   -7.1620 C   0  0  0  0  0  0  0  0  0  0  0  0
  -16.8450   14.6270   -6.4510 C   0  0  0  0  0  0  0  0  0  0  0  0
  -17.6280   17.3080   -7.0730 C   0  0  0  0  0  0  0  0  0  0  0  0
  -16.6290   16.6630   -7.8150 C   0  0  0  0  0  0  0  0  0  0  0  0
  -16.2200   15.3340   -7.5250 C   0  0  0  0  0  0  0  0  0  0  0  0
  -15.0950   14.8230   -8.2340 C   0  0  0  0  0  0  0  0  0  0  0  0
  -13.6530   13.0460   -9.1430 C   0  0  0  0  0  0  0  0  0  0  0  0
  -21.6540    5.9590   -3.6830 C   0  0  0  0  0  0  0  0  0  0  0  0
  -22.6350    6.3470   -1.3560 C   0  0  0  0  0  0  0  0  0  0  0  0
  -23.1970    7.6800   -1.8930 C   0  0  0  0  0  0  0  0  0  0  0  0
  -14.1930   15.6430   -8.5280 O   0  0  0  0  0  0  0  0  0  0  0  0
  -14.8980   13.4840   -8.5210 N   0  0  0  0  0  0  0  0  0  0  0  0
  -15.9490   12.5890   -8.4010 C   0  0  0  0  0  0  0  0  0  0  0  0
  -16.2220   11.6530   -9.4320 C   0  0  0  0  0  0  0  0  0  0  0  0
  -17.0470   10.6050   -9.2280 N   0  0  0  0  0  0  0  0  0  0  0  0
  -18.2370   16.6240   -6.0210 C   0  0  0  0  0  0  0  0  0  0  0  0
  -17.8550   15.3060   -5.7210 C   0  0  0  0  0  0  0  0  0  0  0  0
  -16.5780   13.2960   -6.1310 N   0  0  0  0  0  0  0  0  0  0  0  0
  -16.8250   12.7540   -4.8030 C   0  0  0  0  0  0  0  0  0  0  0  0
  -17.4070   11.3020   -7.0380 N   0  0  0  0  0  0  0  0  0  0  0  0
  -18.4530    9.3430   -7.9400 N   0  0  0  0  0  0  0  0  0  0  0  0
  -19.5120    7.0510   -8.2590 O   0  0  0  0  0  0  0  0  0  0  0  0
  -19.4230    5.1690   -9.7430 C   0  0  0  0  0  0  0  0  0  0  0  0
  -21.7250    7.4010   -3.9230 N   0  0  0  0  0  0  0  0  0  0  0  0
  -22.1430    8.2920   -2.8450 C   0  0  0  0  0  0  0  0  0  0  0  0
  -23.4270    5.7990   -0.3010 O   0  0  0  0  0  0  0  0  0  0  0  0
  -22.5530    5.3830   -2.5560 C   0  0  0  0  0  0  0  0  0  0  0  0
  -20.7670    5.5020   -8.1840 H   0  0  0  0  0  0  0  0  0  0  0  0
  -19.2850    5.1600   -7.6640 H   0  0  0  0  0  0  0  0  0  0  0  0
  -21.0620    6.2570   -6.2280 H   0  0  0  0  0  0  0  0  0  0  0  0
  -20.4810    9.7630   -3.8900 H   0  0  0  0  0  0  0  0  0  0  0  0
  -19.0650   10.6010   -5.6280 H   0  0  0  0  0  0  0  0  0  0  0  0
  -17.9860   18.1690   -7.3730 H   0  0  0  0  0  0  0  0  0  0  0  0
  -16.2000   17.1430   -8.5550 H   0  0  0  0  0  0  0  0  0  0  0  0
  -13.0050   12.8050   -8.4450 H   0  0  0  0  0  0  0  0  0  0  0  0
  -13.8280   12.2640   -9.7120 H   0  0  0  0  0  0  0  0  0  0  0  0
  -13.2870   13.7750   -9.6920 H   0  0  0  0  0  0  0  0  0  0  0  0
  -21.8920    5.5030   -4.5210 H   0  0  0  0  0  0  0  0  0  0  0  0
  -20.7220    5.7350   -3.4690 H   0  0  0  0  0  0  0  0  0  0  0  0
  -21.7260    6.5040   -1.0170 H   0  0  0  0  0  0  0  0  0  0  0  0
  -24.0330    7.5150   -2.3830 H   0  0  0  0  0  0  0  0  0  0  0  0
  -23.3660    8.2950   -1.1450 H   0  0  0  0  0  0  0  0  0  0  0  0
  -15.7950   11.7650  -10.3070 H   0  0  0  0  0  0  0  0  0  0  0  0
  -18.9340   17.0640   -5.4900 H   0  0  0  0  0  0  0  0  0  0  0  0
  -18.3010   14.8410   -4.9830 H   0  0  0  0  0  0  0  0  0  0  0  0
  -17.2230   13.4500   -4.2350 H   0  0  0  0  0  0  0  0  0  0  0  0
  -15.9760   12.4550   -4.4080 H   0  0  0  0  0  0  0  0  0  0  0  0
  -17.4420   11.9920   -4.8700 H   0  0  0  0  0  0  0  0  0  0  0  0
  -18.4800    8.7980   -8.6770 H   0  0  0  0  0  0  0  0  0  0  0  0
  -18.4560    5.2820   -9.8750 H   0  0  0  0  0  0  0  0  0  0  0  0
  -19.9090    5.6970  -10.4130 H   0  0  0  0  0  0  0  0  0  0  0  0
  -19.6580    4.2190   -9.8410 H   0  0  0  0  0  0  0  0  0  0  0  0
  -21.3510    8.5370   -2.3180 H   0  0  0  0  0  0  0  0  0  0  0  0
  -22.5200    9.1080   -3.2430 H   0  0  0  0  0  0  0  0  0  0  0  0
  -22.9020    5.6000    0.3920 H   0  0  0  0  0  0  0  0  0  0  0  0
  -22.1800    4.5240   -2.2530 H   0  0  0  0  0  0  0  0  0  0  0  0
  -23.4580    5.2330   -2.9100 H   0  0  0  0  0  0  0  0  0  0  0  0
  1 30  1  0  0  0  0
  1 36  1  0  0  0  0
  1 37  1  0  0  0  0
  2  7  2  0  0  0  0
  2  3  1  0  0  0  0
  3  4  2  0  0  0  0
  4  5  1  0  0  0  0
  4 32  1  0  0  0  0
  5 39  1  0  0  0  0
  6 40  1  0  0  0  0
  6  5  2  0  0  0  0
  7  6  1  0  0  0  0
  8 29  1  0  0  0  0
  8 28  1  0  0  0  0
  9 28  2  0  0  0  0
  9 26  1  0  0  0  0
 10 26  1  0  0  0  0
 10 25  1  0  0  0  0
 11 24  1  0  0  0  0
 12 13  1  0  0  0  0
 12 11  2  0  0  0  0
 13 10  2  0  0  0  0
 14 13  1  0  0  0  0
 15 20  1  0  0  0  0
 15 43  1  0  0  0  0
 16 47  1  0  0  0  0
 16 35  1  0  0  0  0
 17 48  1  0  0  0  0
 17 34  1  0  0  0  0
 18 17  1  0  0  0  0
 18 50  1  0  0  0  0
 19 14  2  0  0  0  0
 20 21  1  0  0  0  0
 20 14  1  0  0  0  0
 21  9  1  0  0  0  0
 22 23  1  0  0  0  0
 22 21  2  0  0  0  0
 23  8  2  0  0  0  0
 24 25  2  0  0  0  0
 24 52  1  0  0  0  0
 25 53  1  0  0  0  0
 26 27  1  0  0  0  0
 27 55  1  0  0  0  0
 27 54  1  0  0  0  0
 29  7  1  0  0  0  0
 30  2  1  0  0  0  0
 31  1  1  0  0  0  0
 32 16  1  0  0  0  0
 32 33  1  0  0  0  0
 33 61  1  0  0  0  0
 33 18  1  0  0  0  0
 34 63  1  0  0  0  0
 35 64  1  0  0  0  0
 35 17  1  0  0  0  0
 38  3  1  0  0  0  0
 41 11  1  0  0  0  0
 42 12  1  0  0  0  0
 44 15  1  0  0  0  0
 45 15  1  0  0  0  0
 46 16  1  0  0  0  0
 49 18  1  0  0  0  0
 51 22  1  0  0  0  0
 56 27  1  0  0  0  0
 57 29  1  0  0  0  0
 58 31  1  0  0  0  0
 59 31  1  0  0  0  0
 60 31  1  0  0  0  0
 62 33  1  0  0  0  0
 65 35  1  0  0  0  0
M  END
$$$$
