/Users/chinazoemeh/HopeMScP/data/ligands/BRD4-BD1_BRD4-BD1_99_7YMG/BRD4-BD1_BRD4-BD1_99_7YMG.pdb
 OpenBabel07142514423D

  9  6  0  0  0  0  0  0  0  0999 V2000
    5.1180    3.6800  -23.5080 C   0  0  0  0  0  0  0  0  0  0  0  0
    6.2040    3.2880  -23.9400 O   0  0  0  0  0  0  0  0  0  0  0  0
    4.8080    3.7080  -22.3130 O   0  0  0  0  0  0  0  0  0  0  0  0
  -18.9080   -1.1560    6.6760 C   0  0  0  0  0  0  0  0  0  0  0  0
  -19.3990   -1.1200    5.5500 O   0  0  0  0  0  0  0  0  0  0  0  0
  -17.6890   -1.2660    6.8510 O   0  0  0  0  0  0  0  0  0  0  0  0
   -2.2810   -5.3780  -29.9820 C   0  0  0  0  0  0  0  0  0  0  0  0
   -2.5220   -4.2320  -29.6280 O   0  0  0  0  0  0  0  0  0  0  0  0
   -1.1590   -5.8610  -30.1700 O   0  0  0  0  0  0  0  0  0  0  0  0
  1  3  2  0  0  0  0
  2  1  1  0  0  0  0
  4  6  2  0  0  0  0
  5  4  1  0  0  0  0
  7  8  2  0  0  0  0
  9  7  1  0  0  0  0
M  END
$$$$
