/Users/chinazoemeh/HopeMScP/data/ligands/BRD4-BD1_BRD4-BD1_77_6V1U/BRD4-BD1_BRD4-BD1_77_6V1U.pdb
 OpenBabel07142514433D

 25 28  0  0  0  0  0  0  0  0999 V2000
    5.1020   -9.8880    5.7190 C   0  0  0  0  0  0  0  0  0  0  0  0
    6.9810   -8.1530    1.0860 C   0  0  0  0  0  0  0  0  0  0  0  0
    8.3990   -7.0180   -0.5870 C   0  0  0  0  0  0  0  0  0  0  0  0
   12.5530   -8.1460   -2.6400 C   0  0  0  0  0  0  0  0  0  0  0  0
   13.7540   -7.4060   -2.5840 C   0  0  0  0  0  0  0  0  0  0  0  0
   13.5910   -4.2660    0.6840 C   0  0  0  0  0  0  0  0  0  0  0  0
   12.6610   -5.2420    0.2390 C   0  0  0  0  0  0  0  0  0  0  0  0
   11.3820   -5.4390    0.7890 C   0  0  0  0  0  0  0  0  0  0  0  0
   10.7520   -6.4670    0.0970 C   0  0  0  0  0  0  0  0  0  0  0  0
    9.4630   -7.0000    0.3550 C   0  0  0  0  0  0  0  0  0  0  0  0
    9.2610   -7.5760    1.6380 C   0  0  0  0  0  0  0  0  0  0  0  0
    8.0300   -8.1430    2.0420 C   0  0  0  0  0  0  0  0  0  0  0  0
    7.8740   -8.7320    3.3370 C   0  0  0  0  0  0  0  0  0  0  0  0
    6.5150   -9.5490    5.2280 C   0  0  0  0  0  0  0  0  0  0  0  0
    6.0200  -11.0060    5.2050 C   0  0  0  0  0  0  0  0  0  0  0  0
    7.1700   -7.6000   -0.1940 C   0  0  0  0  0  0  0  0  0  0  0  0
    8.4970   -6.4560   -1.9650 C   0  0  0  0  0  0  0  0  0  0  0  0
   11.6810   -6.8870   -0.8560 C   0  0  0  0  0  0  0  0  0  0  0  0
   13.8700   -6.3810   -1.6230 C   0  0  0  0  0  0  0  0  0  0  0  0
   13.2150   -3.2600    1.6980 C   0  0  0  0  0  0  0  0  0  0  0  0
    6.6640   -8.9340    3.9460 N   0  0  0  0  0  0  0  0  0  0  0  0
   11.5410   -7.8770   -1.7760 N   0  0  0  0  0  0  0  0  0  0  0  0
   12.8140   -6.1450   -0.7730 N   0  0  0  0  0  0  0  0  0  0  0  0
   14.7630   -4.2510    0.2180 O   0  0  0  0  0  0  0  0  0  0  0  0
    8.9130   -9.1170    3.9440 O   0  0  0  0  0  0  0  0  0  0  0  0
  2 12  1  0  0  0  0
  3 16  1  0  0  0  0
  3 10  2  0  0  0  0
  4  5  1  0  0  0  0
  4 22  2  0  0  0  0
  5 19  2  0  0  0  0
  6 20  1  0  0  0  0
  7  6  1  0  0  0  0
  7  8  2  0  0  0  0
  9 10  1  0  0  0  0
  9  8  1  0  0  0  0
 10 11  1  0  0  0  0
 11 12  2  0  0  0  0
 12 13  1  0  0  0  0
 13 25  2  0  0  0  0
 13 21  1  0  0  0  0
 14  1  1  0  0  0  0
 15 14  1  0  0  0  0
 15  1  1  0  0  0  0
 16  2  2  0  0  0  0
 17  3  1  0  0  0  0
 18 23  1  0  0  0  0
 18  9  2  0  0  0  0
 19 23  1  0  0  0  0
 21 14  1  0  0  0  0
 22 18  1  0  0  0  0
 23  7  1  0  0  0  0
 24  6  2  0  0  0  0
M  END
$$$$
