/Users/chinazoemeh/HopeMScP/data/ligands/BRD4-BD1_BRD4-BD1_92_6G0E/BRD4-BD1_BRD4-BD1_92_6G0E.pdb
 OpenBabel07142514423D

  6  4  0  0  0  0  0  0  0  0999 V2000
   50.9500   41.0900   94.7580 C   0  0  0  0  0  0  0  0  0  0  0  0
   51.0580   41.2990   93.5280 O   0  0  0  0  0  0  0  0  0  0  0  0
   50.9290   39.9690   95.3160 O   0  0  0  0  0  0  0  0  0  0  0  0
   57.5060   43.9260   85.5310 C   0  0  0  0  0  0  0  0  0  0  0  0
   58.1530   42.9300   85.9240 O   0  0  0  0  0  0  0  0  0  0  0  0
   56.5570   44.4750   86.1400 O   0  0  0  0  0  0  0  0  0  0  0  0
  1  3  2  0  0  0  0
  2  1  1  0  0  0  0
  4  5  1  0  0  0  0
  4  6  2  0  0  0  0
M  END
$$$$
