/Users/chinazoemeh/HopeMScP/data/ligands/BRD4-BD1_BRD4-BD1_44_7MR5/BRD4-BD1_BRD4-BD1_44_7MR5.pdb
 OpenBabel07142514433D

  8  6  0  0  0  0  0  0  0  0999 V2000
   -2.4660    6.9960  -73.7700 C   0  0  0  0  0  0  0  0  0  0  0  0
   -2.3510    5.8370  -74.6020 O   0  0  0  0  0  0  0  0  0  0  0  0
   -1.1800    7.8140  -73.8390 C   0  0  0  0  0  0  0  0  0  0  0  0
   -0.0770    7.0460  -73.3290 O   0  0  0  0  0  0  0  0  0  0  0  0
   -1.4350    6.5610  -55.9980 C   0  0  0  0  0  0  0  0  0  0  0  0
   -2.0440    7.8620  -55.9720 O   0  0  0  0  0  0  0  0  0  0  0  0
   -2.1430    5.6420  -55.0050 C   0  0  0  0  0  0  0  0  0  0  0  0
   -2.0760    6.2100  -53.6930 O   0  0  0  0  0  0  0  0  0  0  0  0
  2  1  1  0  0  0  0
  3  1  1  0  0  0  0
  3  4  1  0  0  0  0
  5  6  1  0  0  0  0
  5  7  1  0  0  0  0
  7  8  1  0  0  0  0
M  END
$$$$
