/Users/chinazoemeh/HopeMScP/data/ligands/BRD4-BD1_BRD4-BD1_43_7LA9/BRD4-BD1_BRD4-BD1_43_7LA9.pdb
 OpenBabel07142514423D

 56 42  0  0  0  0  0  0  0  0999 V2000
  -12.8430   50.4290  -20.0910 C   0  0  0  0  0  0  0  0  0  0  0  0
  -13.2010   49.4810  -19.0780 O   0  0  0  0  0  0  0  0  0  0  0  0
  -11.3440   50.5920  -20.0250 C   0  0  0  0  0  0  0  0  0  0  0  0
  -10.9230   50.9670  -21.3320 O   0  0  0  0  0  0  0  0  0  0  0  0
  -14.9880   35.6610   -3.7810 C   0  0  0  0  0  0  0  0  0  0  0  0
  -14.2770   35.6270   -5.0320 O   0  0  0  0  0  0  0  0  0  0  0  0
  -14.5110   34.4670   -2.9630 C   0  0  0  0  0  0  0  0  0  0  0  0
  -14.2590   34.7990   -1.5770 O   0  0  0  0  0  0  0  0  0  0  0  0
   -7.2270   44.0430    2.4180 C   0  0  0  0  0  0  0  0  0  0  0  0
   -8.2400   45.0590    2.5160 O   0  0  0  0  0  0  0  0  0  0  0  0
   -5.8050   44.5820    2.2410 C   0  0  0  0  0  0  0  0  0  0  0  0
   -5.5860   45.8250    2.9250 O   0  0  0  0  0  0  0  0  0  0  0  0
   -6.0930   21.5210  -11.7030 C   0  0  0  0  0  0  0  0  0  0  0  0
   -5.5730   20.1810  -11.6510 O   0  0  0  0  0  0  0  0  0  0  0  0
   -7.3750   21.6000  -10.8830 C   0  0  0  0  0  0  0  0  0  0  0  0
   -8.4530   21.0430  -11.6670 O   0  0  0  0  0  0  0  0  0  0  0  0
    2.8760   41.4780   -1.5140 C   0  0  0  0  0  0  0  0  0  0  0  0
    3.4160   42.7860   -1.1920 O   0  0  0  0  0  0  0  0  0  0  0  0
    1.3720   41.4200   -1.1980 C   0  0  0  0  0  0  0  0  0  0  0  0
    1.0110   42.2270   -0.0440 O   0  0  0  0  0  0  0  0  0  0  0  0
  -19.4870   60.9560   -6.4760 C   0  0  0  0  0  0  0  0  0  0  0  0
  -19.0740   60.0220   -7.5020 O   0  0  0  0  0  0  0  0  0  0  0  0
  -20.9210   61.4310   -6.6840 C   0  0  0  0  0  0  0  0  0  0  0  0
  -21.1220   62.7300   -6.1010 O   0  0  0  0  0  0  0  0  0  0  0  0
    4.4860    2.4000   -5.2940 C   0  0  0  0  0  0  0  0  0  0  0  0
    5.7220    1.9440   -5.8840 O   0  0  0  0  0  0  0  0  0  0  0  0
    4.0670    1.3460   -4.2750 C   0  0  0  0  0  0  0  0  0  0  0  0
    3.1340    1.9360   -3.3520 O   0  0  0  0  0  0  0  0  0  0  0  0
   29.0490   24.1890   -8.9020 C   0  0  0  0  0  0  0  0  0  0  0  0
   30.1790   23.5880   -9.5740 O   0  0  0  0  0  0  0  0  0  0  0  0
   28.0490   23.1260   -8.4220 C   0  0  0  0  0  0  0  0  0  0  0  0
   26.6810   23.5980   -8.5140 O   0  0  0  0  0  0  0  0  0  0  0  0
    8.3860   22.2240  -28.6200 C   0  0  0  0  0  0  0  0  0  0  0  0
    8.1200   20.8240  -28.4800 O   0  0  0  0  0  0  0  0  0  0  0  0
    9.8660   22.5070  -28.3530 C   0  0  0  0  0  0  0  0  0  0  0  0
   10.2540   23.7930  -28.9060 O   0  0  0  0  0  0  0  0  0  0  0  0
   -7.6390   26.0480   15.3940 C   0  0  0  0  0  0  0  0  0  0  0  0
   -6.2810   26.2090   14.9730 O   0  0  0  0  0  0  0  0  0  0  0  0
   -7.7670   26.4260   16.8590 C   0  0  0  0  0  0  0  0  0  0  0  0
   -8.6960   27.4900   16.8830 O   0  0  0  0  0  0  0  0  0  0  0  0
    1.2220    4.9900   11.8300 C   0  0  0  0  0  0  0  0  0  0  0  0
    2.4140    4.9440   10.9950 O   0  0  0  0  0  0  0  0  0  0  0  0
    0.7790    6.4610   11.9880 C   0  0  0  0  0  0  0  0  0  0  0  0
    1.8410    7.3090   12.5260 O   0  0  0  0  0  0  0  0  0  0  0  0
   25.6110   24.1910  -29.1500 C   0  0  0  0  0  0  0  0  0  0  0  0
   24.7780   23.2000  -28.4950 O   0  0  0  0  0  0  0  0  0  0  0  0
   26.9430   24.4350  -28.4310 C   0  0  0  0  0  0  0  0  0  0  0  0
   27.4710   25.7040  -28.8770 O   0  0  0  0  0  0  0  0  0  0  0  0
  -37.0340   71.8280  -19.4290 C   0  0  0  0  0  0  0  0  0  0  0  0
  -36.1550   70.9090  -18.7250 O   0  0  0  0  0  0  0  0  0  0  0  0
  -37.3340   71.3300  -20.8550 C   0  0  0  0  0  0  0  0  0  0  0  0
  -36.6700   70.0560  -21.0450 O   0  0  0  0  0  0  0  0  0  0  0  0
  -35.0330   55.5150  -11.3470 C   0  0  0  0  0  0  0  0  0  0  0  0
  -36.2140   54.7920  -11.7300 O   0  0  0  0  0  0  0  0  0  0  0  0
  -33.8100   54.8810  -12.0160 C   0  0  0  0  0  0  0  0  0  0  0  0
  -32.6560   55.7620  -11.9580 O   0  0  0  0  0  0  0  0  0  0  0  0
  1  3  1  0  0  0  0
  1  2  1  0  0  0  0
  4  3  1  0  0  0  0
  5  7  1  0  0  0  0
  6  5  1  0  0  0  0
  7  8  1  0  0  0  0
  9 10  1  0  0  0  0
 11  9  1  0  0  0  0
 11 12  1  0  0  0  0
 13 14  1  0  0  0  0
 13 15  1  0  0  0  0
 16 15  1  0  0  0  0
 17 19  1  0  0  0  0
 17 18  1  0  0  0  0
 19 20  1  0  0  0  0
 22 21  1  0  0  0  0
 23 21  1  0  0  0  0
 23 24  1  0  0  0  0
 25 27  1  0  0  0  0
 26 25  1  0  0  0  0
 27 28  1  0  0  0  0
 29 31  1  0  0  0  0
 30 29  1  0  0  0  0
 32 31  1  0  0  0  0
 33 34  1  0  0  0  0
 33 35  1  0  0  0  0
 36 35  1  0  0  0  0
 37 39  1  0  0  0  0
 38 37  1  0  0  0  0
 39 40  1  0  0  0  0
 41 43  1  0  0  0  0
 42 41  1  0  0  0  0
 43 44  1  0  0  0  0
 45 46  1  0  0  0  0
 45 47  1  0  0  0  0
 48 47  1  0  0  0  0
 49 50  1  0  0  0  0
 51 49  1  0  0  0  0
 52 51  1  0  0  0  0
 54 53  1  0  0  0  0
 55 56  1  0  0  0  0
 55 53  1  0  0  0  0
M  END
$$$$
