/Users/chinazoemeh/HopeMScP/data/ligands/BRD4-BD1_BRD4-BD1_52_6VUC/BRD4-BD1_BRD4-BD1_52_6VUC.pdb
 OpenBabel07142514423D

 22 24  0  0  1  0  0  0  0  0999 V2000
  -10.4350   -5.4100   12.7720 C   0  0  0  0  0  0  0  0  0  0  0  0
  -12.0450   -6.3580   11.1210 C   0  0  0  0  0  0  0  0  0  0  0  0
  -13.3540   -5.9100   10.4480 C   0  0  0  0  0  0  0  0  0  0  0  0
  -13.8280   -4.5990   11.1360 C   0  0  2  0  0  0  0  0  0  0  0  0
  -14.1140   -3.4990   10.1970 C   0  0  0  0  0  0  0  0  0  0  0  0
  -13.9150   -2.1600   10.5370 C   0  0  0  0  0  0  0  0  0  0  0  0
  -14.1450   -1.1220    9.6350 C   0  0  0  0  0  0  0  0  0  0  0  0
  -14.6010   -1.3350    8.3340 C   0  0  0  0  0  0  0  0  0  0  0  0
  -13.0060   -1.1260    5.5090 C   0  0  0  0  0  0  0  0  0  0  0  0
  -11.8370   -0.8190    4.6010 C   0  0  0  0  0  0  0  0  0  0  0  0
  -10.5890   -0.4770    5.3830 C   0  0  0  0  0  0  0  0  0  0  0  0
  -10.8930    0.6310    6.3730 C   0  0  0  0  0  0  0  0  0  0  0  0
  -12.1150    0.2950    7.2280 C   0  0  0  0  0  0  0  0  0  0  0  0
  -14.7650   -2.6930    8.0080 C   0  0  0  0  0  0  0  0  0  0  0  0
  -14.5370   -3.7460    8.9100 C   0  0  0  0  0  0  0  0  0  0  0  0
  -12.5810   -4.1990   11.9590 C   0  0  0  0  0  0  0  0  0  0  0  0
  -11.6410   -5.3120   11.9870 N   0  0  0  0  0  0  0  0  0  0  0  0
  -13.3750   -0.0120    6.4130 N   0  0  0  0  0  0  0  0  0  0  0  0
  -14.9610    1.1490    7.9040 O   0  0  0  0  0  0  0  0  0  0  0  0
  -15.7950   -0.4920    6.2580 O   0  0  0  0  0  0  0  0  0  0  0  0
  -11.4230   -7.3780   10.9730 O   0  0  0  0  0  0  0  0  0  0  0  0
  -14.8050   -0.0820    7.2010 S   0  0  0  0  0  0  0  0  0  0  0  0
  2 17  1  0  0  0  0
  3  2  1  0  0  0  0
  3  4  1  0  0  0  0
  4  5  1  6  0  0  0
  4 16  1  0  0  0  0
  5  6  1  0  0  0  0
  7  6  2  0  0  0  0
  8  7  1  0  0  0  0
  9 18  1  0  0  0  0
 10 11  1  0  0  0  0
 10  9  1  0  0  0  0
 11 12  1  0  0  0  0
 12 13  1  0  0  0  0
 14  8  2  0  0  0  0
 14 15  1  0  0  0  0
 15  5  2  0  0  0  0
 16 17  1  0  0  0  0
 17  1  1  0  0  0  0
 18 22  1  0  0  0  0
 18 13  1  0  0  0  0
 20 22  2  0  0  0  0
 21  2  2  0  0  0  0
 22 19  2  0  0  0  0
 22  8  1  0  0  0  0
M  END
$$$$
