/Users/chinazoemeh/HopeMScP/data/ligands/BRD4-BD1_BRD4-BD1_109_6ULS/BRD4-BD1_BRD4-BD1_109_6ULS.pdb
 OpenBabel07142514423D

 24 22  0  0  1  0  0  0  0  0999 V2000
   13.7110  -13.3230   -7.5970 O   0  0  0  0  0  0  0  0  0  0  0  0
   14.0790  -12.1690   -7.8610 C   0  0  0  0  0  0  0  0  0  0  0  0
   13.1500  -11.2230   -8.5920 C   0  0  0  0  0  0  0  0  0  0  0  0
   15.3090  -11.6840   -7.5090 N   0  0  0  0  0  0  0  0  0  0  0  0
   16.2950  -12.5010   -6.8130 C   0  0  0  0  0  0  0  0  0  0  0  0
   16.4640  -12.0780   -5.3450 C   0  0  0  0  0  0  0  0  0  0  0  0
   17.5330  -12.9020   -4.6580 C   0  0  0  0  0  0  0  0  0  0  0  0
   17.7430  -12.3460   -3.2550 C   0  0  0  0  0  0  0  0  0  0  0  0
   18.8120  -13.0990   -2.4390 C   0  0  2  0  0  0  0  0  0  0  0  0
   18.4580  -14.4940   -2.2470 N   0  0  0  0  0  0  0  0  0  0  0  0
   19.0410  -12.2890   -1.1690 C   0  0  0  0  0  0  0  0  0  0  0  0
   19.5090  -11.1490   -1.1890 O   0  0  0  0  0  0  0  0  0  0  0  0
   16.1210   -8.4900   -5.2330 O   0  0  0  0  0  0  0  0  0  0  0  0
   17.1680   -8.1440   -4.6690 C   0  0  0  0  0  0  0  0  0  0  0  0
   18.3000   -7.4590   -5.3910 C   0  0  0  0  0  0  0  0  0  0  0  0
   17.3270   -8.4190   -3.3390 N   0  0  0  0  0  0  0  0  0  0  0  0
   16.3380   -9.0410   -2.5360 C   0  0  0  0  0  0  0  0  0  0  0  0
   15.6940   -7.9470   -1.6860 C   0  0  0  0  0  0  0  0  0  0  0  0
   14.8440   -8.5650   -0.6110 C   0  0  0  0  0  0  0  0  0  0  0  0
   14.2350   -7.4350    0.1820 C   0  0  0  0  0  0  0  0  0  0  0  0
   15.1320   -6.9020    1.2970 C   0  0  2  0  0  0  0  0  0  0  0  0
   15.7370   -7.9280    2.1310 N   0  0  0  0  0  0  0  0  0  0  0  0
   14.2680   -5.9960    2.1510 C   0  0  0  0  0  0  0  0  0  0  0  0
   13.3710   -6.4180    2.8820 O   0  0  0  0  0  0  0  0  0  0  0  0
  2  1  2  0  0  0  0
  2  4  1  0  0  0  0
  3  2  1  0  0  0  0
  4  5  1  0  0  0  0
  5  6  1  0  0  0  0
  6  7  1  0  0  0  0
  7  8  1  0  0  0  0
  8  9  1  0  0  0  0
  9 10  1  1  0  0  0
  9 11  1  0  0  0  0
 12 11  2  0  0  0  0
 13 14  2  0  0  0  0
 14 16  1  0  0  0  0
 15 14  1  0  0  0  0
 16 17  1  0  0  0  0
 17 18  1  0  0  0  0
 18 19  1  0  0  0  0
 19 20  1  0  0  0  0
 20 21  1  0  0  0  0
 21 22  1  1  0  0  0
 21 23  1  0  0  0  0
 23 24  2  0  0  0  0
M  END
$$$$
