/Users/chinazoemeh/HopeMScP/data/ligands/BRD4-BD1_BRD4-BD1_72_7FH2/BRD4-BD1_BRD4-BD1_72_7FH2.pdb
 OpenBabel07142514433D

120124  0  0  0  0  0  0  0  0999 V2000
   19.7610   -9.6370  -23.6210 C   0  0  0  0  0  0  0  0  0  0  0  0
   20.3450  -10.8080  -24.0990 C   0  0  0  0  0  0  0  0  0  0  0  0
   18.3800   -9.6140  -23.3470 C   0  0  0  0  0  0  0  0  0  0  0  0
   19.5750  -11.9430  -24.3260 C   0  0  0  0  0  0  0  0  0  0  0  0
   17.6170  -10.7560  -23.5920 C   0  0  0  0  0  0  0  0  0  0  0  0
   18.2150  -11.9170  -24.0740 C   0  0  0  0  0  0  0  0  0  0  0  0
   20.6160   -8.5520  -23.4090 C   0  0  0  0  0  0  0  0  0  0  0  0
   21.5890   -8.1890  -24.5390 C   0  0  0  0  0  0  0  0  0  0  0  0
   22.5070   -7.0190  -24.1680 C   0  0  0  0  0  0  0  0  0  0  0  0
   23.4270   -6.5810  -25.1160 C   0  0  0  0  0  0  0  0  0  0  0  0
   25.4340   -5.3170  -25.5990 C   0  0  0  0  0  0  0  0  0  0  0  0
   25.3190   -5.6540  -26.9410 C   0  0  0  0  0  0  0  0  0  0  0  0
   24.4840   -5.7840  -24.6960 C   0  0  0  0  0  0  0  0  0  0  0  0
   24.2630   -6.4530  -27.3730 C   0  0  0  0  0  0  0  0  0  0  0  0
   23.3180   -6.9190  -26.4600 C   0  0  0  0  0  0  0  0  0  0  0  0
   17.6260   -8.3700  -22.8270 C   0  0  0  0  0  0  0  0  0  0  0  0
   16.1180  -12.9080  -24.1910 C   0  0  0  0  0  0  0  0  0  0  0  0
   21.4350  -12.9900  -25.2480 C   0  0  0  0  0  0  0  0  0  0  0  0
   24.9160   -5.9400  -29.5460 C   0  0  0  0  0  0  0  0  0  0  0  0
   25.7530   -4.8810  -22.9810 C   0  0  0  0  0  0  0  0  0  0  0  0
   17.9300   -7.9940  -21.3660 C   0  0  0  0  0  0  0  0  0  0  0  0
   18.1670   -9.1580  -19.2080 C   0  0  0  0  0  0  0  0  0  0  0  0
   19.2580   -8.1300  -18.9070 C   0  0  0  0  0  0  0  0  0  0  0  0
   17.5790   -9.0540  -20.4120 N   0  0  0  0  0  0  0  0  0  0  0  0
   20.6730   -7.9570  -22.3350 O   0  0  0  0  0  0  0  0  0  0  0  0
   17.5350  -13.0750  -24.3260 O   0  0  0  0  0  0  0  0  0  0  0  0
   20.0810  -13.1210  -24.7990 O   0  0  0  0  0  0  0  0  0  0  0  0
   24.1400   -6.7880  -28.6890 O   0  0  0  0  0  0  0  0  0  0  0  0
   24.5210   -5.5020  -23.3610 O   0  0  0  0  0  0  0  0  0  0  0  0
   17.8930  -10.0310  -18.3860 O   0  0  0  0  0  0  0  0  0  0  0  0
  -16.7010    9.6120    5.2520 C   0  0  0  0  0  0  0  0  0  0  0  0
  -16.1040   10.7780    5.7260 C   0  0  0  0  0  0  0  0  0  0  0  0
  -18.0770    9.6040    4.9650 C   0  0  0  0  0  0  0  0  0  0  0  0
  -16.8600   11.9240    5.9370 C   0  0  0  0  0  0  0  0  0  0  0  0
  -18.8260   10.7580    5.1950 C   0  0  0  0  0  0  0  0  0  0  0  0
  -18.2160   11.9140    5.6730 C   0  0  0  0  0  0  0  0  0  0  0  0
  -15.8550    8.5200    5.0510 C   0  0  0  0  0  0  0  0  0  0  0  0
  -14.8790    8.1680    6.1760 C   0  0  0  0  0  0  0  0  0  0  0  0
  -13.9610    6.9960    5.8060 C   0  0  0  0  0  0  0  0  0  0  0  0
  -13.0450    6.5730    6.7640 C   0  0  0  0  0  0  0  0  0  0  0  0
  -11.0440    5.3180    7.2880 C   0  0  0  0  0  0  0  0  0  0  0  0
  -11.1720    5.6870    8.6200 C   0  0  0  0  0  0  0  0  0  0  0  0
  -11.9870    5.7670    6.3700 C   0  0  0  0  0  0  0  0  0  0  0  0
  -12.2310    6.4960    9.0260 C   0  0  0  0  0  0  0  0  0  0  0  0
  -13.1670    6.9420    8.0980 C   0  0  0  0  0  0  0  0  0  0  0  0
  -18.8380    8.3630    4.4510 C   0  0  0  0  0  0  0  0  0  0  0  0
  -20.2840   12.9690    5.6740 C   0  0  0  0  0  0  0  0  0  0  0  0
  -14.9860   12.9800    6.8310 C   0  0  0  0  0  0  0  0  0  0  0  0
  -11.6410    5.9870   11.2040 C   0  0  0  0  0  0  0  0  0  0  0  0
  -10.8120    4.6420    4.7190 C   0  0  0  0  0  0  0  0  0  0  0  0
  -18.5390    7.9920    2.9900 C   0  0  0  0  0  0  0  0  0  0  0  0
  -18.4860    9.1370    0.8090 C   0  0  0  0  0  0  0  0  0  0  0  0
  -17.3560    8.1690    0.4520 C   0  0  0  0  0  0  0  0  0  0  0  0
  -19.0010    9.0150    2.0460 N   0  0  0  0  0  0  0  0  0  0  0  0
  -15.7940    7.9230    3.9780 O   0  0  0  0  0  0  0  0  0  0  0  0
  -18.8760   13.0840    5.9140 O   0  0  0  0  0  0  0  0  0  0  0  0
  -16.3480   13.1000    6.4040 O   0  0  0  0  0  0  0  0  0  0  0  0
  -12.3660    6.8600   10.3310 O   0  0  0  0  0  0  0  0  0  0  0  0
  -11.9410    5.4580    5.0440 O   0  0  0  0  0  0  0  0  0  0  0  0
  -18.8570    9.9830    0.0000 O   0  0  0  0  0  0  0  0  0  0  0  0
  -17.8560    3.7590   14.9920 C   0  0  0  0  0  0  0  0  0  0  0  0
  -18.5100    2.6230   14.5150 C   0  0  0  0  0  0  0  0  0  0  0  0
  -18.6060    4.8050   15.5550 C   0  0  0  0  0  0  0  0  0  0  0  0
  -19.8960    2.5270   14.5810 C   0  0  0  0  0  0  0  0  0  0  0  0
  -19.9940    4.7000   15.6050 C   0  0  0  0  0  0  0  0  0  0  0  0
  -20.6350    3.5620   15.1250 C   0  0  0  0  0  0  0  0  0  0  0  0
  -16.4600    3.7750   14.8940 C   0  0  0  0  0  0  0  0  0  0  0  0
  -15.8620    3.3800   13.5400 C   0  0  0  0  0  0  0  0  0  0  0  0
  -14.3290    3.3830   13.5210 C   0  0  0  0  0  0  0  0  0  0  0  0
  -13.7190    3.0580   12.3130 C   0  0  0  0  0  0  0  0  0  0  0  0
  -11.7580    2.3290   11.1030 C   0  0  0  0  0  0  0  0  0  0  0  0
  -12.4700    2.4040    9.9120 C   0  0  0  0  0  0  0  0  0  0  0  0
  -12.3880    2.6580   12.2980 C   0  0  0  0  0  0  0  0  0  0  0  0
  -13.8060    2.8040    9.9140 C   0  0  0  0  0  0  0  0  0  0  0  0
  -14.4270    3.1300   11.1170 C   0  0  0  0  0  0  0  0  0  0  0  0
  -17.9840    6.1090   16.0920 C   0  0  0  0  0  0  0  0  0  0  0  0
  -22.6730    4.4960   15.7470 C   0  0  0  0  0  0  0  0  0  0  0  0
  -19.7660    0.4110   13.6170 C   0  0  0  0  0  0  0  0  0  0  0  0
  -13.7050    2.6540    7.5940 C   0  0  0  0  0  0  0  0  0  0  0  0
  -10.5070    1.9060   13.4410 C   0  0  0  0  0  0  0  0  0  0  0  0
  -17.2640    5.9690   17.4450 C   0  0  0  0  0  0  0  0  0  0  0  0
  -17.6390    4.6320   19.4780 C   0  0  0  0  0  0  0  0  0  0  0  0
  -16.1330    4.3610   19.4410 C   0  0  0  0  0  0  0  0  0  0  0  0
  -18.1240    5.4060   18.4890 N   0  0  0  0  0  0  0  0  0  0  0  0
  -15.7260    4.0150   15.8520 O   0  0  0  0  0  0  0  0  0  0  0  0
  -21.9900    3.3840   15.1530 O   0  0  0  0  0  0  0  0  0  0  0  0
  -20.6100    1.4500   14.1340 O   0  0  0  0  0  0  0  0  0  0  0  0
  -14.5190    2.8830    8.7510 O   0  0  0  0  0  0  0  0  0  0  0  0
  -11.7550    2.6110   13.5090 O   0  0  0  0  0  0  0  0  0  0  0  0
  -18.3330    4.1490   20.3690 O   0  0  0  0  0  0  0  0  0  0  0  0
   17.8620    3.7940   21.9020 C   0  0  0  0  0  0  0  0  0  0  0  0
   18.5450    2.6760   22.3730 C   0  0  0  0  0  0  0  0  0  0  0  0
   18.5830    4.8610   21.3390 C   0  0  0  0  0  0  0  0  0  0  0  0
   19.9320    2.6150   22.3010 C   0  0  0  0  0  0  0  0  0  0  0  0
   19.9740    4.7920   21.2820 C   0  0  0  0  0  0  0  0  0  0  0  0
   20.6460    3.6690   21.7570 C   0  0  0  0  0  0  0  0  0  0  0  0
   16.4700    3.7650   22.0130 C   0  0  0  0  0  0  0  0  0  0  0  0
   15.9010    3.3740   23.3850 C   0  0  0  0  0  0  0  0  0  0  0  0
   14.3700    3.3250   23.4220 C   0  0  0  0  0  0  0  0  0  0  0  0
   13.7670    2.9970   24.6330 C   0  0  0  0  0  0  0  0  0  0  0  0
   11.8130    2.2000   25.8160 C   0  0  0  0  0  0  0  0  0  0  0  0
   12.4950    2.3230   27.0210 C   0  0  0  0  0  0  0  0  0  0  0  0
   12.4540    2.5390   24.6300 C   0  0  0  0  0  0  0  0  0  0  0  0
   13.8130    2.7810   27.0390 C   0  0  0  0  0  0  0  0  0  0  0  0
   14.4460    3.1170   25.8430 C   0  0  0  0  0  0  0  0  0  0  0  0
   17.9200    6.1470   20.8080 C   0  0  0  0  0  0  0  0  0  0  0  0
   22.6710    4.6360   21.1240 C   0  0  0  0  0  0  0  0  0  0  0  0
   19.8390    0.5600   23.3740 C   0  0  0  0  0  0  0  0  0  0  0  0
   13.6710    2.6420   29.3630 C   0  0  0  0  0  0  0  0  0  0  0  0
   10.5800    1.7950   23.4820 C   0  0  0  0  0  0  0  0  0  0  0  0
   17.1930    5.9770   19.4640 C   0  0  0  0  0  0  0  0  0  0  0  0
   17.6380    4.7210   17.3960 C   0  0  0  0  0  0  0  0  0  0  0  0
   16.1560    4.3400   17.4500 C   0  0  0  0  0  0  0  0  0  0  0  0
   18.0800    5.5040   18.3970 N   0  0  0  0  0  0  0  0  0  0  0  0
   15.7210    3.9610   21.0580 O   0  0  0  0  0  0  0  0  0  0  0  0
   22.0040    3.5210   21.7280 O   0  0  0  0  0  0  0  0  0  0  0  0
   20.6640    1.5520   22.7470 O   0  0  0  0  0  0  0  0  0  0  0  0
   14.4930    2.9090   28.2190 O   0  0  0  0  0  0  0  0  0  0  0  0
   11.8540    2.4470   23.4060 O   0  0  0  0  0  0  0  0  0  0  0  0
   18.3520    4.3140   16.4810 O   0  0  0  0  0  0  0  0  0  0  0  0
  1  7  1  0  0  0  0
  1  3  1  0  0  0  0
  2  1  2  0  0  0  0
  3 16  1  0  0  0  0
  4  2  1  0  0  0  0
  4  6  2  0  0  0  0
  5  3  2  0  0  0  0
  6  5  1  0  0  0  0
  7 25  2  0  0  0  0
  8  9  1  0  0  0  0
  8  7  1  0  0  0  0
 10 13  1  0  0  0  0
 10  9  1  0  0  0  0
 11 13  2  0  0  0  0
 12 11  1  0  0  0  0
 13 29  1  0  0  0  0
 14 12  2  0  0  0  0
 14 15  1  0  0  0  0
 15 10  2  0  0  0  0
 16 21  1  0  0  0  0
 18 27  1  0  0  0  0
 19 28  1  0  0  0  0
 21 24  1  0  0  0  0
 22 23  1  0  0  0  0
 22 30  2  0  0  0  0
 24 22  1  0  0  0  0
 26 17  1  0  0  0  0
 26  6  1  0  0  0  0
 27  4  1  0  0  0  0
 28 14  1  0  0  0  0
 29 20  1  0  0  0  0
 31 32  1  0  0  0  0
 32 34  2  0  0  0  0
 33 35  1  0  0  0  0
 33 31  2  0  0  0  0
 34 57  1  0  0  0  0
 35 36  2  0  0  0  0
 36 56  1  0  0  0  0
 36 34  1  0  0  0  0
 37 31  1  0  0  0  0
 37 38  1  0  0  0  0
 39 38  1  0  0  0  0
 39 40  1  0  0  0  0
 40 45  1  0  0  0  0
 41 42  2  0  0  0  0
 42 44  1  0  0  0  0
 43 40  2  0  0  0  0
 43 41  1  0  0  0  0
 44 58  1  0  0  0  0
 45 44  2  0  0  0  0
 46 33  1  0  0  0  0
 47 56  1  0  0  0  0
 50 59  1  0  0  0  0
 51 46  1  0  0  0  0
 52 54  1  0  0  0  0
 53 52  1  0  0  0  0
 54 51  1  0  0  0  0
 55 37  2  0  0  0  0
 57 48  1  0  0  0  0
 58 49  1  0  0  0  0
 59 43  1  0  0  0  0
 60 52  2  0  0  0  0
 61 63  1  0  0  0  0
 62 64  1  0  0  0  0
 62 61  2  0  0  0  0
 63 65  2  0  0  0  0
 63 76  1  0  0  0  0
 64 66  2  0  0  0  0
 66 86  1  0  0  0  0
 66 65  1  0  0  0  0
 67 61  1  0  0  0  0
 67 85  2  0  0  0  0
 68 67  1  0  0  0  0
 69 68  1  0  0  0  0
 70 69  1  0  0  0  0
 71 73  2  0  0  0  0
 72 74  2  0  0  0  0
 72 71  1  0  0  0  0
 73 70  1  0  0  0  0
 73 89  1  0  0  0  0
 74 75  1  0  0  0  0
 75 70  2  0  0  0  0
 76 81  1  0  0  0  0
 78 87  1  0  0  0  0
 79 88  1  0  0  0  0
 80 89  1  0  0  0  0
 81 84  1  0  0  0  0
 82 90  2  0  0  0  0
 83 82  1  0  0  0  0
 84 82  1  0  0  0  0
 86 77  1  0  0  0  0
 87 64  1  0  0  0  0
 88 74  1  0  0  0  0
 91 97  1  0  0  0  0
 91 92  1  0  0  0  0
 93 91  2  0  0  0  0
 94 92  2  0  0  0  0
 94117  1  0  0  0  0
 95 93  1  0  0  0  0
 95 96  2  0  0  0  0
 96 94  1  0  0  0  0
 97 98  1  0  0  0  0
 98 99  1  0  0  0  0
 99100  1  0  0  0  0
100105  1  0  0  0  0
101102  2  0  0  0  0
102104  1  0  0  0  0
103100  2  0  0  0  0
103101  1  0  0  0  0
104118  1  0  0  0  0
105104  2  0  0  0  0
106 93  1  0  0  0  0
107116  1  0  0  0  0
111106  1  0  0  0  0
112113  1  0  0  0  0
112114  1  0  0  0  0
114111  1  0  0  0  0
115 97  2  0  0  0  0
116 96  1  0  0  0  0
117108  1  0  0  0  0
118109  1  0  0  0  0
119110  1  0  0  0  0
119103  1  0  0  0  0
120112  2  0  0  0  0
M  END
$$$$
