/Users/chinazoemeh/HopeMScP/data/ligands/BRD4-BD1_BRD4-BD1_2_8B96/BRD4-BD1_BRD4-BD1_2_8B96.pdb
 OpenBabel07142514423D

  8  6  0  0  0  0  0  0  0  0999 V2000
   14.0940    7.4760   30.0210 C   0  0  0  0  0  0  0  0  0  0  0  0
   15.1220    7.8720   30.9340 O   0  0  0  0  0  0  0  0  0  0  0  0
   14.4140    6.1060   29.4410 C   0  0  0  0  0  0  0  0  0  0  0  0
   15.4970    6.2090   28.5060 O   0  0  0  0  0  0  0  0  0  0  0  0
  -12.2890    6.4250   33.1850 C   0  0  0  0  0  0  0  0  0  0  0  0
  -13.2820    6.7960   32.2220 O   0  0  0  0  0  0  0  0  0  0  0  0
  -12.4940    4.9700   33.5910 C   0  0  0  0  0  0  0  0  0  0  0  0
  -12.3510    4.1160   32.4480 O   0  0  0  0  0  0  0  0  0  0  0  0
  1  2  1  0  0  0  0
  3  1  1  0  0  0  0
  4  3  1  0  0  0  0
  5  7  1  0  0  0  0
  6  5  1  0  0  0  0
  8  7  1  0  0  0  0
M  END
$$$$
