/Users/chinazoemeh/HopeMScP/data/ligands/BRD4-BD1_BRD4-BD1_63_6YQO/BRD4-BD1_BRD4-BD1_63_6YQO.pdb
 OpenBabel07142514433D

 12  9  0  0  0  0  0  0  0  0999 V2000
   43.0640   19.4120    6.0290 C   0  0  0  0  0  0  0  0  0  0  0  0
   43.4660   18.3310    6.8740 O   0  0  0  0  0  0  0  0  0  0  0  0
   42.1140   20.3190    6.7970 C   0  0  0  0  0  0  0  0  0  0  0  0
   40.9200   19.6010    7.1380 O   0  0  0  0  0  0  0  0  0  0  0  0
   25.6150   32.4940   19.5280 C   0  0  0  0  0  0  0  0  0  0  0  0
   26.1590   32.8990   20.7890 O   0  0  0  0  0  0  0  0  0  0  0  0
   24.5810   33.5100   19.0520 C   0  0  0  0  0  0  0  0  0  0  0  0
   23.4010   33.4530   19.8660 O   0  0  0  0  0  0  0  0  0  0  0  0
   24.5730   42.2280    1.8080 C   0  0  0  0  0  0  0  0  0  0  0  0
   23.5990   41.9950    2.8300 O   0  0  0  0  0  0  0  0  0  0  0  0
   24.1620   41.4830    0.5460 C   0  0  0  0  0  0  0  0  0  0  0  0
   24.0000   40.0950    0.8490 O   0  0  0  0  0  0  0  0  0  0  0  0
  1  3  1  0  0  0  0
  1  2  1  0  0  0  0
  3  4  1  0  0  0  0
  5  6  1  0  0  0  0
  7  5  1  0  0  0  0
  7  8  1  0  0  0  0
  9 10  1  0  0  0  0
 11 12  1  0  0  0  0
 11  9  1  0  0  0  0
M  END
$$$$
