/Users/chinazoemeh/HopeMScP/data/ligands/BRD4-BD1_BRD4-BD1_61_6G0D/BRD4-BD1_BRD4-BD1_61_6G0D.pdb
 OpenBabel07142514433D

  4  3  0  0  0  0  0  0  0  0999 V2000
  -22.7460   -1.1220   -6.3420 C   0  0  0  0  0  0  0  0  0  0  0  0
  -21.6820   -1.9540   -6.8020 O   0  0  0  0  0  0  0  0  0  0  0  0
  -23.6810   -1.9460   -5.4490 C   0  0  0  0  0  0  0  0  0  0  0  0
  -24.2040   -3.0370   -6.2090 O   0  0  0  0  0  0  0  0  0  0  0  0
  1  3  1  0  0  0  0
  2  1  1  0  0  0  0
  4  3  1  0  0  0  0
M  END
$$$$
