/Users/chinazoemeh/HopeMScP/data/ligands/BRD4-BD1_BRD4-BD1_23_6JI3/BRD4-BD1_BRD4-BD1_23_6JI3.pdb
 OpenBabel07142514433D

 21 24  0  0  1  0  0  0  0  0999 V2000
   12.2600   43.6040    1.6020 C   0  0  0  0  0  0  0  0  0  0  0  0
   12.6780   40.0690   -2.5090 C   0  0  0  0  0  0  0  0  0  0  0  0
    7.8290   38.9570   -0.0080 C   0  0  0  0  0  0  0  0  0  0  0  0
   13.2240   38.8730   -3.3210 C   0  0  0  0  0  0  0  0  0  0  0  0
    7.4560   38.4790   -1.2630 C   0  0  0  0  0  0  0  0  0  0  0  0
    6.2970   37.6670   -1.0690 C   0  0  0  0  0  0  0  0  0  0  0  0
    5.9780   37.6540    0.3040 C   0  0  0  0  0  0  0  0  0  0  0  0
    8.9260   40.7150    1.1570 C   0  0  0  0  0  0  0  0  0  0  0  0
    9.0320   39.8630    0.2580 C   0  0  0  0  0  0  0  0  0  0  0  0
   10.0620   39.6190   -0.5010 C   0  0  0  0  0  0  0  0  0  0  0  0
   11.3840   40.4760   -0.3290 C   0  0  0  0  0  0  0  0  0  0  0  0
   11.3030   41.4670    0.7140 C   0  0  0  0  0  0  0  0  0  0  0  0
    9.8990   41.5290    1.4680 C   0  0  0  0  0  0  0  0  0  0  0  0
   13.8660   40.5360   -0.3060 C   0  0  1  0  0  0  0  0  0  0  0  0
   13.7120   41.9050    0.4050 C   0  0  0  0  0  0  0  0  0  0  0  0
   14.0150   39.4310    0.7280 C   0  0  0  0  0  0  0  0  0  0  0  0
   11.7990   39.3180   -3.5300 C   0  0  0  0  0  0  0  0  0  0  0  0
   12.6270   40.3330   -1.0660 N   0  0  0  0  0  0  0  0  0  0  0  0
   12.4200   42.3090    0.9280 N   0  0  0  0  0  0  0  0  0  0  0  0
    6.9360   38.4610    0.9820 N   0  0  0  0  0  0  0  0  0  0  0  0
   14.7960   42.7530    0.5930 O   0  0  0  0  0  0  0  0  0  0  0  0
  2 18  1  0  0  0  0
  3  9  1  0  0  0  0
  3 20  1  0  0  0  0
  4  2  1  0  0  0  0
  5  6  1  0  0  0  0
  5  3  2  0  0  0  0
  6  7  2  0  0  0  0
  7 20  1  0  0  0  0
  8 13  1  0  0  0  0
  9  8  2  0  0  0  0
 10 11  2  0  0  0  0
 10  9  1  0  0  0  0
 11 12  1  0  0  0  0
 12 19  1  0  0  0  0
 12 13  2  0  0  0  0
 14 15  1  0  0  0  0
 14 16  1  1  0  0  0
 15 21  2  0  0  0  0
 15 19  1  0  0  0  0
 17  4  1  0  0  0  0
 17  2  1  0  0  0  0
 18 11  1  0  0  0  0
 18 14  1  0  0  0  0
 19  1  1  0  0  0  0
M  END
$$$$
