/Users/chinazoemeh/HopeMScP/data/ligands/BRD4-BD1_BRD4-BD1_55_6E4A/BRD4-BD1_BRD4-BD1_55_6E4A.pdb
 OpenBabel07142514423D

 18 15  0  0  0  0  0  0  0  0999 V2000
   11.1420   11.6740   58.5800 C   0  0  0  0  0  0  0  0  0  0  0  0
   11.6990   12.6180   57.6350 O   0  0  0  0  0  0  0  0  0  0  0  0
   11.8130   10.3290   58.4560 C   0  0  0  0  0  0  0  0  0  0  0  0
   13.1700   10.5370   59.0080 O   0  0  0  0  0  0  0  0  0  0  0  0
   11.0750    9.3480   59.3320 C   0  0  0  0  0  0  0  0  0  0  0  0
   11.6890    8.0380   59.0930 O   0  0  0  0  0  0  0  0  0  0  0  0
  -11.9360   -9.5590   82.1090 C   0  0  0  0  0  0  0  0  0  0  0  0
  -12.9760   -8.5280   82.0990 O   0  0  0  0  0  0  0  0  0  0  0  0
  -10.8660   -9.4500   80.9850 C   0  0  0  0  0  0  0  0  0  0  0  0
   -9.8970   -8.3460   81.1880 O   0  0  0  0  0  0  0  0  0  0  0  0
  -10.3010  -10.9020   80.9930 C   0  0  0  0  0  0  0  0  0  0  0  0
   -8.9270  -11.0420   80.4410 O   0  0  0  0  0  0  0  0  0  0  0  0
  -18.7820   18.6810   81.2860 C   0  0  0  0  0  0  0  0  0  0  0  0
  -18.3500   18.9150   82.6590 O   0  0  0  0  0  0  0  0  0  0  0  0
  -19.9540   17.7000   81.1910 C   0  0  0  0  0  0  0  0  0  0  0  0
  -19.4740   16.3770   81.4180 O   0  0  0  0  0  0  0  0  0  0  0  0
  -21.0540   18.0290   82.2040 C   0  0  0  0  0  0  0  0  0  0  0  0
  -20.6860   17.9820   83.6080 O   0  0  0  0  0  0  0  0  0  0  0  0
  2  1  1  0  0  0  0
  3  1  1  0  0  0  0
  3  4  1  0  0  0  0
  3  5  1  0  0  0  0
  6  5  1  0  0  0  0
  8  7  1  0  0  0  0
  9 11  1  0  0  0  0
  9 10  1  0  0  0  0
  9  7  1  0  0  0  0
 12 11  1  0  0  0  0
 13 14  1  0  0  0  0
 15 13  1  0  0  0  0
 15 16  1  0  0  0  0
 15 17  1  0  0  0  0
 17 18  1  0  0  0  0
M  END
$$$$
