/Users/chinazoemeh/HopeMScP/data/ligands/BRD4-BD1_BRD4-BD1_6_7EIG/BRD4-BD1_BRD4-BD1_6_7EIG.pdb
 OpenBabel07142514423D

 25 28  0  0  1  0  0  0  0  0999 V2000
   18.4820   28.2280   40.9190 C   0  0  0  0  0  0  0  0  0  0  0  0
   20.4850   30.9180   37.4550 C   0  0  0  0  0  0  0  0  0  0  0  0
   21.6460   31.6670   36.8920 C   0  0  1  0  0  0  0  0  0  0  0  0
   21.0110   32.3080   35.7050 C   0  0  0  0  0  0  0  0  0  0  0  0
   19.5810   31.8830   35.6640 C   0  0  0  0  0  0  0  0  0  0  0  0
   18.5590   32.2830   34.6300 C   0  0  0  0  0  0  0  0  0  0  0  0
   21.6510   33.2140   34.6910 C   0  0  0  0  0  0  0  0  0  0  0  0
   23.0420   32.8950   34.2300 C   0  0  0  0  0  0  0  0  0  0  0  0
   23.0450   31.7900   37.3680 C   0  0  0  0  0  0  0  0  0  0  0  0
   19.3650   28.8720   40.1260 C   0  0  0  0  0  0  0  0  0  0  0  0
   23.8990   30.6960   37.3570 C   0  0  0  0  0  0  0  0  0  0  0  0
   25.2040   30.8480   37.8100 C   0  0  0  0  0  0  0  0  0  0  0  0
   25.6420   32.0870   38.2680 C   0  0  0  0  0  0  0  0  0  0  0  0
   24.7870   33.1820   38.2700 C   0  0  0  0  0  0  0  0  0  0  0  0
   23.4840   33.0320   37.8180 C   0  0  0  0  0  0  0  0  0  0  0  0
   20.8010   28.7060   40.3950 C   0  0  0  0  0  0  0  0  0  0  0  0
   21.2770   27.9840   41.4710 C   0  0  0  0  0  0  0  0  0  0  0  0
   20.3340   27.3530   42.2600 C   0  0  0  0  0  0  0  0  0  0  0  0
   18.9700   27.4860   41.9670 C   0  0  0  0  0  0  0  0  0  0  0  0
   20.4190   30.0290   38.6800 C   0  0  0  0  0  0  0  0  0  0  0  0
   19.3560   31.0740   36.7300 N   0  0  0  0  0  0  0  0  0  0  0  0
   18.0030   26.9120   42.6720 N   0  0  0  0  0  0  0  0  0  0  0  0
   21.4070   29.4980   39.4510 N   0  0  0  0  0  0  0  0  0  0  0  0
   19.1870   29.6640   39.0560 N   0  0  0  0  0  0  0  0  0  0  0  0
   21.0510   34.1790   34.2460 O   0  0  0  0  0  0  0  0  0  0  0  0
  1 19  1  0  0  0  0
  2 20  1  0  0  0  0
  3  9  1  1  0  0  0
  3  2  1  0  0  0  0
  4  3  1  0  0  0  0
  5  4  2  0  0  0  0
  5 21  1  0  0  0  0
  6  5  1  0  0  0  0
  7  4  1  0  0  0  0
  8  7  1  0  0  0  0
  9 15  1  0  0  0  0
 10 16  1  0  0  0  0
 10  1  2  0  0  0  0
 11  9  2  0  0  0  0
 11 12  1  0  0  0  0
 12 13  2  0  0  0  0
 13 14  1  0  0  0  0
 15 14  2  0  0  0  0
 16 17  2  0  0  0  0
 17 18  1  0  0  0  0
 19 18  2  0  0  0  0
 19 22  1  0  0  0  0
 20 24  1  0  0  0  0
 20 23  2  0  0  0  0
 21  2  2  0  0  0  0
 23 16  1  0  0  0  0
 24 10  1  0  0  0  0
 25  7  2  0  0  0  0
M  END
$$$$
