/Users/chinazoemeh/HopeMScP/data/ligands/BRD4-BD1_BRD4-BD1_1_7RUI/BRD4-BD1_BRD4-BD1_1_7RUI.pdb
 OpenBabel07142514433D

 51 56  0  0  0  0  0  0  0  0999 V2000
    9.2960   11.0890    5.4490 C   0  0  0  0  0  0  0  0  0  0  0  0
   12.9880   14.0930    4.2430 C   0  0  0  0  0  0  0  0  0  0  0  0
   13.4570   14.5050    5.5060 C   0  0  0  0  0  0  0  0  0  0  0  0
   14.6280   15.2540    5.7060 C   0  0  0  0  0  0  0  0  0  0  0  0
   15.4100   15.5030    4.6090 C   0  0  0  0  0  0  0  0  0  0  0  0
   14.9980   15.0340    3.3430 C   0  0  0  0  0  0  0  0  0  0  0  0
   13.7820   14.3330    3.1620 C   0  0  0  0  0  0  0  0  0  0  0  0
   16.9180   16.1920    3.0620 C   0  0  0  0  0  0  0  0  0  0  0  0
   16.6250   16.2160    4.4140 C   0  0  0  0  0  0  0  0  0  0  0  0
   15.8530   15.3080    0.9440 C   0  0  0  0  0  0  0  0  0  0  0  0
   17.2870   15.5510    0.3090 C   0  0  0  0  0  0  0  0  0  0  0  0
   15.4140   13.9470    0.5440 C   0  0  0  0  0  0  0  0  0  0  0  0
   15.6230   11.5810    0.7390 C   0  0  0  0  0  0  0  0  0  0  0  0
    9.0430   12.5520    3.5260 C   0  0  0  0  0  0  0  0  0  0  0  0
    9.6520   13.5590    2.6560 C   0  0  0  0  0  0  0  0  0  0  0  0
   10.9060   13.9840    2.9450 C   0  0  0  0  0  0  0  0  0  0  0  0
   11.6760   13.5210    4.0570 C   0  0  0  0  0  0  0  0  0  0  0  0
   11.0960   12.5770    4.8390 C   0  0  0  0  0  0  0  0  0  0  0  0
    9.8440   12.1370    4.5730 N   0  0  0  0  0  0  0  0  0  0  0  0
   15.9740   15.4370    2.4000 N   0  0  0  0  0  0  0  0  0  0  0  0
   16.0280   12.8380    1.1050 N   0  0  0  0  0  0  0  0  0  0  0  0
   14.6480   11.4340   -0.2280 C   0  0  0  0  0  0  0  0  0  0  0  0
   14.1270   12.5630   -0.7780 C   0  0  0  0  0  0  0  0  0  0  0  0
   14.4610   13.8080   -0.4070 C   0  0  0  0  0  0  0  0  0  0  0  0
   14.8540   16.3960    0.4130 C   0  0  0  0  0  0  0  0  0  0  0  0
   13.8230   16.9560    1.0970 C   0  0  0  0  0  0  0  0  0  0  0  0
   12.9690   17.9540    0.5650 C   0  0  0  0  0  0  0  0  0  0  0  0
   13.1220   18.3460   -0.7530 C   0  0  0  0  0  0  0  0  0  0  0  0
   14.1560   17.7090   -1.4540 C   0  0  0  0  0  0  0  0  0  0  0  0
   14.9990   16.7700   -0.9340 N   0  0  0  0  0  0  0  0  0  0  0  0
   15.0630   15.7440    6.9410 N   0  0  0  0  0  0  0  0  0  0  0  0
   14.0940   15.9000    8.2600 S   0  0  0  0  0  0  0  0  0  0  0  0
   13.8680   14.2670    8.9920 C   0  0  0  0  0  0  0  0  0  0  0  0
   15.1160   13.7120    9.4730 C   0  0  0  0  0  0  0  0  0  0  0  0
   15.0190   12.5100    9.9850 F   0  0  0  0  0  0  0  0  0  0  0  0
   16.0620   13.4870    8.4430 F   0  0  0  0  0  0  0  0  0  0  0  0
   15.8520   14.4180   10.3860 F   0  0  0  0  0  0  0  0  0  0  0  0
   12.8260   16.2860    7.8540 O   0  0  0  0  0  0  0  0  0  0  0  0
   14.8130   16.7180    9.1880 O   0  0  0  0  0  0  0  0  0  0  0  0
    8.8820   14.0000    1.6220 N   0  0  0  0  0  0  0  0  0  0  0  0
    9.1830   14.9410    0.6590 C   0  0  0  0  0  0  0  0  0  0  0  0
    8.2150   15.1280   -0.3100 N   0  0  0  0  0  0  0  0  0  0  0  0
    8.3790   16.0380   -1.3730 C   0  0  0  0  0  0  0  0  0  0  0  0
    9.3300   16.9670   -1.5420 C   0  0  0  0  0  0  0  0  0  0  0  0
    9.3950   17.8220   -2.6570 C   0  0  0  0  0  0  0  0  0  0  0  0
    8.4810   17.6790   -3.6510 C   0  0  0  0  0  0  0  0  0  0  0  0
    7.5120   16.7220   -3.5290 C   0  0  0  0  0  0  0  0  0  0  0  0
    7.5010   15.9220   -2.3690 C   0  0  0  0  0  0  0  0  0  0  0  0
    6.5540   15.0330   -2.1820 F   0  0  0  0  0  0  0  0  0  0  0  0
   10.2580   15.5280    0.7270 O   0  0  0  0  0  0  0  0  0  0  0  0
    7.9000   12.1080    3.3370 O   0  0  0  0  0  0  0  0  0  0  0  0
  2  3  1  0  0  0  0
  3  4  2  0  0  0  0
  4 31  1  0  0  0  0
  5  4  1  0  0  0  0
  6  5  2  0  0  0  0
  7  6  1  0  0  0  0
  7  2  2  0  0  0  0
  8  9  2  0  0  0  0
  9  5  1  0  0  0  0
 10 20  1  0  0  0  0
 11 10  1  0  0  0  0
 12 10  1  0  0  0  0
 12 21  1  0  0  0  0
 13 21  2  0  0  0  0
 14 19  1  0  0  0  0
 15 16  2  0  0  0  0
 15 14  1  0  0  0  0
 16 17  1  0  0  0  0
 17  2  1  0  0  0  0
 17 18  2  0  0  0  0
 19 18  1  0  0  0  0
 19  1  1  0  0  0  0
 20  8  1  0  0  0  0
 20  6  1  0  0  0  0
 22 13  1  0  0  0  0
 23 24  1  0  0  0  0
 23 22  2  0  0  0  0
 24 12  2  0  0  0  0
 25 10  1  0  0  0  0
 25 26  1  0  0  0  0
 27 26  2  0  0  0  0
 28 27  1  0  0  0  0
 29 30  1  0  0  0  0
 29 28  2  0  0  0  0
 30 25  2  0  0  0  0
 31 32  1  0  0  0  0
 32 33  1  0  0  0  0
 32 39  2  0  0  0  0
 33 34  1  0  0  0  0
 34 35  1  0  0  0  0
 34 37  1  0  0  0  0
 36 34  1  0  0  0  0
 38 32  2  0  0  0  0
 40 15  1  0  0  0  0
 41 50  2  0  0  0  0
 41 40  1  0  0  0  0
 42 41  1  0  0  0  0
 43 42  1  0  0  0  0
 44 43  1  0  0  0  0
 45 44  2  0  0  0  0
 46 47  2  0  0  0  0
 46 45  1  0  0  0  0
 47 48  1  0  0  0  0
 48 49  1  0  0  0  0
 48 43  2  0  0  0  0
 51 14  2  0  0  0  0
M  END
$$$$
