/Users/chinazoemeh/HopeMScP/data/ligands/BRD4-BD1_BRD4-BD1_71_6XVC/BRD4-BD1_BRD4-BD1_71_6XVC.pdb
 OpenBabel07142514423D

  8  6  0  0  0  0  0  0  0  0999 V2000
  -25.0110    8.7680    0.9020 C   0  0  0  0  0  0  0  0  0  0  0  0
  -24.7460    9.1730   -0.4110 O   0  0  0  0  0  0  0  0  0  0  0  0
  -24.5120    7.3110    1.0560 C   0  0  0  0  0  0  0  0  0  0  0  0
  -25.1180    6.5020    0.0580 O   0  0  0  0  0  0  0  0  0  0  0  0
   -8.0040   22.9840  -12.4680 C   0  0  0  0  0  0  0  0  0  0  0  0
   -6.8190   23.2280  -11.7090 O   0  0  0  0  0  0  0  0  0  0  0  0
   -8.7460   21.7780  -11.8390 C   0  0  0  0  0  0  0  0  0  0  0  0
   -7.9140   20.6060  -11.8290 O   0  0  0  0  0  0  0  0  0  0  0  0
  1  3  1  0  0  0  0
  2  1  1  0  0  0  0
  4  3  1  0  0  0  0
  5  7  1  0  0  0  0
  5  6  1  0  0  0  0
  7  8  1  0  0  0  0
M  END
$$$$
