/Users/chinazoemeh/HopeMScP/data/ligands/BRD4-BD1_BRD4-BD1_4_7EHW/BRD4-BD1_BRD4-BD1_4_7EHW.pdb
 OpenBabel07142514433D

 26 29  0  0  0  0  0  0  0  0999 V2000
   31.3050   31.2790   45.4950 C   0  0  0  0  0  0  0  0  0  0  0  0
   25.9730   31.5790   41.8480 C   0  0  0  0  0  0  0  0  0  0  0  0
   26.9780   32.3830   41.3210 C   0  0  0  0  0  0  0  0  0  0  0  0
   28.2610   32.3390   41.8730 C   0  0  0  0  0  0  0  0  0  0  0  0
   24.2760   30.4570   42.4570 C   0  0  0  0  0  0  0  0  0  0  0  0
   22.9050   29.8890   42.5800 C   0  0  0  0  0  0  0  0  0  0  0  0
   21.6880   30.4260   41.9430 C   0  0  0  0  0  0  0  0  0  0  0  0
   20.6860   29.4540   42.4500 C   0  0  0  0  0  0  0  0  0  0  0  0
   21.4090   28.4650   43.3330 C   0  0  0  0  0  0  0  0  0  0  0  0
   29.9220   31.0200   44.9100 C   0  0  0  0  0  0  0  0  0  0  0  0
   21.5330   31.6070   41.0170 C   0  0  0  0  0  0  0  0  0  0  0  0
   21.4170   31.0850   39.5970 C   0  0  0  0  0  0  0  0  0  0  0  0
   19.2310   29.5350   42.0990 C   0  0  0  0  0  0  0  0  0  0  0  0
   18.3730   28.3290   42.2910 C   0  0  0  0  0  0  0  0  0  0  0  0
   20.8820   27.2780   44.1080 C   0  0  0  0  0  0  0  0  0  0  0  0
   31.0060   31.7060   42.6520 C   0  0  0  0  0  0  0  0  0  0  0  0
   32.2730   31.8700   43.4860 C   0  0  0  0  0  0  0  0  0  0  0  0
   28.5660   31.4990   42.9450 C   0  0  0  0  0  0  0  0  0  0  0  0
   27.5910   30.6820   43.4990 C   0  0  0  0  0  0  0  0  0  0  0  0
   26.3100   30.6930   42.9910 C   0  0  0  0  0  0  0  0  0  0  0  0
   25.2000   30.0190   43.3250 N   0  0  0  0  0  0  0  0  0  0  0  0
   24.6680   31.3820   41.5690 N   0  0  0  0  0  0  0  0  0  0  0  0
   22.7150   28.8080   43.3480 N   0  0  0  0  0  0  0  0  0  0  0  0
   29.8500   31.4360   43.5070 N   0  0  0  0  0  0  0  0  0  0  0  0
   18.7520   30.5760   41.6680 O   0  0  0  0  0  0  0  0  0  0  0  0
   32.2890   30.9200   44.5400 O   0  0  0  0  0  0  0  0  0  0  0  0
  2 20  1  0  0  0  0
  3  2  2  0  0  0  0
  3  4  1  0  0  0  0
  4 18  2  0  0  0  0
  5  6  1  0  0  0  0
  5 21  2  0  0  0  0
  6 23  1  0  0  0  0
  7  8  1  0  0  0  0
  7  6  2  0  0  0  0
  8  9  2  0  0  0  0
  9 23  1  0  0  0  0
  9 15  1  0  0  0  0
 10  1  1  0  0  0  0
 11  7  1  0  0  0  0
 12 11  1  0  0  0  0
 13 14  1  0  0  0  0
 13  8  1  0  0  0  0
 16 17  1  0  0  0  0
 16 24  1  0  0  0  0
 17 26  1  0  0  0  0
 18 19  1  0  0  0  0
 18 24  1  0  0  0  0
 20 21  1  0  0  0  0
 20 19  2  0  0  0  0
 22  2  1  0  0  0  0
 22  5  1  0  0  0  0
 24 10  1  0  0  0  0
 25 13  2  0  0  0  0
 26  1  1  0  0  0  0
M  END
$$$$
