/Users/chinazoemeh/HopeMScP/data/ligands/BRD4-BD1_BRD4-BD1_67_6YQP/BRD4-BD1_BRD4-BD1_67_6YQP.pdb
 OpenBabel07142514433D

 12  9  0  0  0  0  0  0  0  0999 V2000
   42.6740   19.5110    6.1120 C   0  0  0  0  0  0  0  0  0  0  0  0
   43.0700   18.4070    6.9320 O   0  0  0  0  0  0  0  0  0  0  0  0
   41.7020   20.3960    6.8780 C   0  0  0  0  0  0  0  0  0  0  0  0
   40.5220   19.6610    7.2150 O   0  0  0  0  0  0  0  0  0  0  0  0
   25.7500   32.6700   19.6170 C   0  0  0  0  0  0  0  0  0  0  0  0
   26.1030   33.1520   20.9090 O   0  0  0  0  0  0  0  0  0  0  0  0
   24.4520   33.3440   19.2020 C   0  0  0  0  0  0  0  0  0  0  0  0
   24.3790   33.3250   17.7800 O   0  0  0  0  0  0  0  0  0  0  0  0
   20.4370   35.6300   -0.1550 C   0  0  0  0  0  0  0  0  0  0  0  0
   19.4550   35.3400    0.8500 O   0  0  0  0  0  0  0  0  0  0  0  0
   20.6600   37.1330   -0.2220 C   0  0  0  0  0  0  0  0  0  0  0  0
   21.0910   37.5800    1.0670 O   0  0  0  0  0  0  0  0  0  0  0  0
  1  3  1  0  0  0  0
  1  2  1  0  0  0  0
  3  4  1  0  0  0  0
  5  6  1  0  0  0  0
  7  5  1  0  0  0  0
  8  7  1  0  0  0  0
  9 10  1  0  0  0  0
 11  9  1  0  0  0  0
 11 12  1  0  0  0  0
M  END
$$$$
