/Users/chinazoemeh/HopeMScP/data/ligands/BRD4-BD1_BRD4-BD1_96_6PSB/BRD4-BD1_BRD4-BD1_96_6PSB.pdb
 OpenBabel07142514433D

 22 25  0  0  1  0  0  0  0  0999 V2000
   17.2670  -15.3880   -3.4040 C   0  0  0  0  0  0  0  0  0  0  0  0
   18.6210  -17.1730   -4.6520 C   0  0  0  0  0  0  0  0  0  0  0  0
   18.2850  -16.4140   -5.8870 C   0  0  0  0  0  0  0  0  0  0  0  0
   17.6100  -14.4880   -4.4630 C   0  0  0  0  0  0  0  0  0  0  0  0
   18.0930  -15.0160   -5.6840 C   0  0  0  0  0  0  0  0  0  0  0  0
   18.7850  -13.8530   -7.9330 C   0  0  0  0  0  0  0  0  0  0  0  0
   17.6210  -14.1530   -9.0670 C   0  0  2  0  0  0  0  0  0  0  0  0
   16.6470  -12.9870   -9.1140 C   0  0  0  0  0  0  0  0  0  0  0  0
   14.3570  -12.8000  -10.2110 C   0  0  0  0  0  0  0  0  0  0  0  0
   15.4570  -15.0380   -9.4610 C   0  0  0  0  0  0  0  0  0  0  0  0
   16.7920  -15.4410   -8.7770 C   0  0  0  0  0  0  0  0  0  0  0  0
   17.9480  -12.7340   -5.9060 C   0  0  0  0  0  0  0  0  0  0  0  0
   17.5090  -13.1120   -4.6260 C   0  0  0  0  0  0  0  0  0  0  0  0
   17.1060  -12.1010   -3.7630 C   0  0  0  0  0  0  0  0  0  0  0  0
   17.1600  -10.8000   -4.2100 C   0  0  0  0  0  0  0  0  0  0  0  0
   17.6040  -10.4560   -5.5150 C   0  0  0  0  0  0  0  0  0  0  0  0
   17.9900  -11.4200   -6.3880 C   0  0  0  0  0  0  0  0  0  0  0  0
   17.7200  -16.7630   -3.5430 N   0  0  0  0  0  0  0  0  0  0  0  0
   18.2680  -13.9630   -6.5430 N   0  0  0  0  0  0  0  0  0  0  0  0
   15.4190  -13.6500   -9.6570 N   0  0  0  0  0  0  0  0  0  0  0  0
   16.5570  -15.0560   -2.4610 O   0  0  0  0  0  0  0  0  0  0  0  0
   14.5570  -15.7770   -9.7870 O   0  0  0  0  0  0  0  0  0  0  0  0
  1 21  2  0  0  0  0
  2 18  1  0  0  0  0
  3  5  1  0  0  0  0
  3  2  1  0  0  0  0
  4  1  1  0  0  0  0
  5  4  2  0  0  0  0
  6 19  1  0  0  0  0
  7 11  1  0  0  0  0
  7  6  1  1  0  0  0
  8  7  1  0  0  0  0
  9 20  1  0  0  0  0
 10 11  1  0  0  0  0
 12 13  1  0  0  0  0
 13  4  1  0  0  0  0
 13 14  2  0  0  0  0
 15 14  1  0  0  0  0
 16 15  2  0  0  0  0
 17 12  2  0  0  0  0
 17 16  1  0  0  0  0
 18  1  1  0  0  0  0
 19 12  1  0  0  0  0
 19  5  1  0  0  0  0
 20 10  1  0  0  0  0
 20  8  1  0  0  0  0
 22 10  2  0  0  0  0
M  END
$$$$
