/Users/chinazoemeh/HopeMScP/data/ligands/BRD4-BD1_BRD4-BD1_86_6V0U/BRD4-BD1_BRD4-BD1_86_6V0U.pdb
 OpenBabel07142514433D

 28 30  0  0  0  0  0  0  0  0999 V2000
   -9.3890   -6.7390    0.2050 C   0  0  0  0  0  0  0  0  0  0  0  0
  -11.0110   -5.1040   -0.5250 N   0  0  0  0  0  0  0  0  0  0  0  0
  -12.8680   -6.0070    1.5020 C   0  0  0  0  0  0  0  0  0  0  0  0
  -13.7550   -7.5710    3.2330 C   0  0  0  0  0  0  0  0  0  0  0  0
  -16.4100   -9.3990    4.7890 C   0  0  0  0  0  0  0  0  0  0  0  0
  -11.6180   -6.5570    1.3630 C   0  0  0  0  0  0  0  0  0  0  0  0
  -12.1480   -2.9090   -2.1780 C   0  0  0  0  0  0  0  0  0  0  0  0
   -7.5080   -7.9900    1.0550 C   0  0  0  0  0  0  0  0  0  0  0  0
   -5.6980   -8.9100   -0.4560 C   0  0  0  0  0  0  0  0  0  0  0  0
   -6.9800   -8.1580   -0.2310 C   0  0  0  0  0  0  0  0  0  0  0  0
   -7.6860   -7.6240   -1.2980 C   0  0  0  0  0  0  0  0  0  0  0  0
   -7.1530   -7.8030   -2.6260 N   0  0  0  0  0  0  0  0  0  0  0  0
   -8.0530   -7.8530   -4.0120 S   0  0  0  0  0  0  0  0  0  0  0  0
   -8.2240   -6.2340   -4.5200 C   0  0  0  0  0  0  0  0  0  0  0  0
   -9.3310   -8.4100   -3.7440 O   0  0  0  0  0  0  0  0  0  0  0  0
   -7.2550   -8.5230   -4.9710 O   0  0  0  0  0  0  0  0  0  0  0  0
   -8.8820   -6.9270   -1.0820 C   0  0  0  0  0  0  0  0  0  0  0  0
  -10.6930   -6.0680    0.3570 C   0  0  0  0  0  0  0  0  0  0  0  0
  -12.2730   -4.6000   -0.3350 N   0  0  0  0  0  0  0  0  0  0  0  0
  -13.2200   -4.9870    0.6160 C   0  0  0  0  0  0  0  0  0  0  0  0
  -13.8560   -6.3970    2.4600 N   0  0  0  0  0  0  0  0  0  0  0  0
  -14.9210   -7.6480    3.9570 O   0  0  0  0  0  0  0  0  0  0  0  0
  -14.9770   -8.8400    4.7660 C   0  0  0  0  0  0  0  0  0  0  0  0
  -12.8480   -8.3190    3.2580 O   0  0  0  0  0  0  0  0  0  0  0  0
  -14.3320   -4.2190    0.4230 N   0  0  0  0  0  0  0  0  0  0  0  0
  -14.0870   -3.3710   -0.5910 N   0  0  0  0  0  0  0  0  0  0  0  0
  -12.8500   -3.5760   -1.0860 C   0  0  0  0  0  0  0  0  0  0  0  0
   -8.7080   -7.2990    1.2850 C   0  0  0  0  0  0  0  0  0  0  0  0
  1 18  1  0  0  0  0
  1 28  1  0  0  0  0
  2 19  1  0  0  0  0
  2 18  2  0  0  0  0
  3 21  1  0  0  0  0
  4 24  2  0  0  0  0
  4 22  1  0  0  0  0
  6  3  2  0  0  0  0
  7 27  1  0  0  0  0
  8 28  2  0  0  0  0
  9 10  1  0  0  0  0
 10  8  1  0  0  0  0
 11 17  1  0  0  0  0
 11 10  2  0  0  0  0
 12 11  1  0  0  0  0
 13 15  2  0  0  0  0
 13 12  1  0  0  0  0
 14 13  1  0  0  0  0
 16 13  2  0  0  0  0
 17  1  2  0  0  0  0
 18  6  1  0  0  0  0
 19 20  1  0  0  0  0
 20  3  1  0  0  0  0
 21  4  1  0  0  0  0
 22 23  1  0  0  0  0
 23  5  1  0  0  0  0
 25 20  2  0  0  0  0
 26 25  1  0  0  0  0
 27 26  2  0  0  0  0
 27 19  1  0  0  0  0
M  END
$$$$
