/Users/chinazoemeh/HopeMScP/data/ligands/BRD4-BD1_BRD4-BD1_81_6U74/BRD4-BD1_BRD4-BD1_81_6U74.pdb
 OpenBabel07142514423D

 72 66  0  0  1  0  0  0  0  0999 V2000
   27.2400    0.4350  -10.3130 O   0  0  0  0  0  0  0  0  0  0  0  0
   26.5710    1.3060  -10.9040 C   0  0  0  0  0  0  0  0  0  0  0  0
   25.5390    0.9380  -11.9420 C   0  0  0  0  0  0  0  0  0  0  0  0
   26.7460    2.6500  -10.6300 N   0  0  0  0  0  0  0  0  0  0  0  0
   27.6950    3.1280   -9.6650 C   0  0  0  0  0  0  0  0  0  0  0  0
   27.5250    4.5970   -9.2730 C   0  0  0  0  0  0  0  0  0  0  0  0
   26.2050    4.7930   -8.5590 C   0  0  0  0  0  0  0  0  0  0  0  0
   25.8320    6.2570   -8.5210 C   0  0  0  0  0  0  0  0  0  0  0  0
   26.8440    7.0780   -7.6990 C   0  0  2  0  0  0  0  0  0  0  0  0
   26.8500    6.7400   -6.2880 N   0  0  0  0  0  0  0  0  0  0  0  0
   26.5310    8.5450   -7.9640 C   0  0  0  0  0  0  0  0  0  0  0  0
   25.5740    8.9330   -8.6390 O   0  0  0  0  0  0  0  0  0  0  0  0
   16.9920   11.6410   -6.0460 O   0  0  0  0  0  0  0  0  0  0  0  0
   17.8110   11.1170   -6.8280 C   0  0  0  0  0  0  0  0  0  0  0  0
   17.3710   10.5800   -8.1680 C   0  0  0  0  0  0  0  0  0  0  0  0
   19.1500   10.9930   -6.4930 N   0  0  0  0  0  0  0  0  0  0  0  0
   19.6810   11.4710   -5.2480 C   0  0  0  0  0  0  0  0  0  0  0  0
   20.8420   10.6650   -4.6600 C   0  0  0  0  0  0  0  0  0  0  0  0
   22.0840   11.5230   -4.5600 C   0  0  0  0  0  0  0  0  0  0  0  0
   23.1860   10.9350   -5.4080 C   0  0  0  0  0  0  0  0  0  0  0  0
   24.5720   11.5020   -5.0580 C   0  0  2  0  0  0  0  0  0  0  0  0
   25.6500   10.9230   -5.8330 N   0  0  0  0  0  0  0  0  0  0  0  0
   24.8710   11.2710   -3.5820 C   0  0  0  0  0  0  0  0  0  0  0  0
   25.1510   10.1720   -3.0990 O   0  0  0  0  0  0  0  0  0  0  0  0
   17.0680    4.0490    8.9120 O   0  0  0  0  0  0  0  0  0  0  0  0
   16.2670    4.1330    9.8650 C   0  0  0  0  0  0  0  0  0  0  0  0
   15.3810    2.9740   10.2560 C   0  0  0  0  0  0  0  0  0  0  0  0
   16.1570    5.2950   10.6040 N   0  0  0  0  0  0  0  0  0  0  0  0
   16.9480    6.4620   10.3320 C   0  0  0  0  0  0  0  0  0  0  0  0
   18.3370    6.4100   10.9730 C   0  0  0  0  0  0  0  0  0  0  0  0
   19.1940    7.5590   10.4850 C   0  0  0  0  0  0  0  0  0  0  0  0
   20.5260    7.5700   11.2020 C   0  0  0  0  0  0  0  0  0  0  0  0
   21.4120    8.7330   10.7280 C   0  0  2  0  0  0  0  0  0  0  0  0
   21.8840    8.5940    9.3670 N   0  0  0  0  0  0  0  0  0  0  0  0
   22.5830    8.8490   11.6950 C   0  0  0  0  0  0  0  0  0  0  0  0
   22.4850    9.2630   12.8520 O   0  0  0  0  0  0  0  0  0  0  0  0
   14.4680   -1.4680   46.2190 O   0  0  0  0  0  0  0  0  0  0  0  0
   13.7940   -0.5660   45.6840 C   0  0  0  0  0  0  0  0  0  0  0  0
   12.7320   -0.8770   44.6560 C   0  0  0  0  0  0  0  0  0  0  0  0
   13.9850    0.7660   46.0060 N   0  0  0  0  0  0  0  0  0  0  0  0
   14.9490    1.2310   46.9610 C   0  0  0  0  0  0  0  0  0  0  0  0
   14.7490    2.6920   47.3690 C   0  0  0  0  0  0  0  0  0  0  0  0
   13.4320    2.8340   48.0990 C   0  0  0  0  0  0  0  0  0  0  0  0
   12.9950    4.2800   48.1530 C   0  0  0  0  0  0  0  0  0  0  0  0
   13.9760    5.1440   48.9620 C   0  0  2  0  0  0  0  0  0  0  0  0
   14.0290    4.7890   50.3700 N   0  0  0  0  0  0  0  0  0  0  0  0
   13.5730    6.5900   48.7000 C   0  0  0  0  0  0  0  0  0  0  0  0
   12.6180    6.9150   47.9900 O   0  0  0  0  0  0  0  0  0  0  0  0
    5.6060    9.7390   47.9550 O   0  0  0  0  0  0  0  0  0  0  0  0
    5.0700   10.0310   49.0430 C   0  0  0  0  0  0  0  0  0  0  0  0
    3.7790   10.8130   49.1030 C   0  0  0  0  0  0  0  0  0  0  0  0
    5.6240    9.6460   50.2510 N   0  0  0  0  0  0  0  0  0  0  0  0
    6.8440    8.9020   50.3580 C   0  0  0  0  0  0  0  0  0  0  0  0
    7.6680    9.1970   51.6130 C   0  0  0  0  0  0  0  0  0  0  0  0
    9.0230    9.7570   51.2370 C   0  0  0  0  0  0  0  0  0  0  0  0
   10.1010    8.8080   51.7070 C   0  0  0  0  0  0  0  0  0  0  0  0
   11.4950    9.4500   51.7820 C   0  0  2  0  0  0  0  0  0  0  0  0
   12.4820    8.8790   50.8850 N   0  0  0  0  0  0  0  0  0  0  0  0
   11.9530    9.3070   53.2230 C   0  0  0  0  0  0  0  0  0  0  0  0
   12.2600    8.2310   53.7370 O   0  0  0  0  0  0  0  0  0  0  0  0
    4.3970    2.1400   65.5940 O   0  0  0  0  0  0  0  0  0  0  0  0
    3.5860    2.2380   66.5340 C   0  0  0  0  0  0  0  0  0  0  0  0
    2.6730    1.0950   66.9130 C   0  0  0  0  0  0  0  0  0  0  0  0
    3.4800    3.4020   67.2760 N   0  0  0  0  0  0  0  0  0  0  0  0
    4.2820    4.5670   67.0340 C   0  0  0  0  0  0  0  0  0  0  0  0
    5.6640    4.5330   67.6960 C   0  0  0  0  0  0  0  0  0  0  0  0
    6.4820    5.7140   67.2130 C   0  0  0  0  0  0  0  0  0  0  0  0
    7.8180    5.8040   67.9170 C   0  0  0  0  0  0  0  0  0  0  0  0
    8.6370    7.0120   67.4250 C   0  0  2  0  0  0  0  0  0  0  0  0
    9.1280    6.8720   66.0720 N   0  0  0  0  0  0  0  0  0  0  0  0
    9.7910    7.2090   68.4000 C   0  0  0  0  0  0  0  0  0  0  0  0
    9.6920    7.7930   69.4800 O   0  0  0  0  0  0  0  0  0  0  0  0
  2  4  1  0  0  0  0
  2  1  2  0  0  0  0
  3  2  1  0  0  0  0
  4  5  1  0  0  0  0
  5  6  1  0  0  0  0
  6  7  1  0  0  0  0
  7  8  1  0  0  0  0
  8  9  1  0  0  0  0
  9 10  1  1  0  0  0
 11  9  1  0  0  0  0
 12 11  2  0  0  0  0
 14 16  1  0  0  0  0
 14 13  2  0  0  0  0
 15 14  1  0  0  0  0
 16 17  1  0  0  0  0
 17 18  1  0  0  0  0
 18 19  1  0  0  0  0
 20 21  1  0  0  0  0
 20 19  1  0  0  0  0
 21 22  1  6  0  0  0
 21 23  1  0  0  0  0
 23 24  2  0  0  0  0
 25 26  2  0  0  0  0
 26 27  1  0  0  0  0
 26 28  1  0  0  0  0
 29 28  1  0  0  0  0
 29 30  1  0  0  0  0
 31 30  1  0  0  0  0
 31 32  1  0  0  0  0
 33 34  1  6  0  0  0
 33 32  1  0  0  0  0
 33 35  1  0  0  0  0
 35 36  2  0  0  0  0
 38 40  1  0  0  0  0
 38 37  2  0  0  0  0
 39 38  1  0  0  0  0
 40 41  1  0  0  0  0
 41 42  1  0  0  0  0
 42 43  1  0  0  0  0
 43 44  1  0  0  0  0
 44 45  1  0  0  0  0
 45 46  1  1  0  0  0
 47 45  1  0  0  0  0
 48 47  2  0  0  0  0
 49 50  2  0  0  0  0
 50 51  1  0  0  0  0
 50 52  1  0  0  0  0
 52 53  1  0  0  0  0
 53 54  1  0  0  0  0
 55 54  1  0  0  0  0
 55 56  1  0  0  0  0
 56 57  1  0  0  0  0
 57 58  1  6  0  0  0
 57 59  1  0  0  0  0
 59 60  2  0  0  0  0
 61 62  2  0  0  0  0
 62 63  1  0  0  0  0
 62 64  1  0  0  0  0
 65 64  1  0  0  0  0
 65 66  1  0  0  0  0
 67 66  1  0  0  0  0
 67 68  1  0  0  0  0
 69 70  1  6  0  0  0
 69 68  1  0  0  0  0
 69 71  1  0  0  0  0
 71 72  2  0  0  0  0
M  END
$$$$
