/Users/chinazoemeh/HopeMScP/data/ligands/BRD4-BD1_BRD4-BD1_7_7REK/BRD4-BD1_BRD4-BD1_7_7REK.pdb
 OpenBabel07142514433D

 24 18  0  0  0  0  0  0  0  0999 V2000
  -14.7090   -4.7900  -20.2180 C   0  0  0  0  0  0  0  0  0  0  0  0
  -13.6340   -5.5580  -19.6410 O   0  0  0  0  0  0  0  0  0  0  0  0
  -16.0240   -5.5630  -20.1510 C   0  0  0  0  0  0  0  0  0  0  0  0
  -15.8870   -6.7870  -20.8910 O   0  0  0  0  0  0  0  0  0  0  0  0
  -15.0120   -6.3030   -2.3800 C   0  0  0  0  0  0  0  0  0  0  0  0
  -15.7900   -5.1320   -2.2860 O   0  0  0  0  0  0  0  0  0  0  0  0
  -15.6500   -7.5370   -1.8690 C   0  0  0  0  0  0  0  0  0  0  0  0
  -16.3350   -7.3480   -0.6540 O   0  0  0  0  0  0  0  0  0  0  0  0
    7.8750    1.8700  -11.7600 C   0  0  0  0  0  0  0  0  0  0  0  0
    9.2250    1.4890  -11.8530 O   0  0  0  0  0  0  0  0  0  0  0  0
    7.7040    3.2680  -11.3270 C   0  0  0  0  0  0  0  0  0  0  0  0
    8.7520    3.6990  -10.4960 O   0  0  0  0  0  0  0  0  0  0  0  0
   10.9790   15.4450  -34.6230 C   0  0  0  0  0  0  0  0  0  0  0  0
    9.8750   14.6780  -35.1580 O   0  0  0  0  0  0  0  0  0  0  0  0
   12.2480   14.6150  -34.7050 C   0  0  0  0  0  0  0  0  0  0  0  0
   12.1220   13.5310  -33.7730 O   0  0  0  0  0  0  0  0  0  0  0  0
   -7.0880   31.0410  -28.0990 C   0  0  0  0  0  0  0  0  0  0  0  0
   -7.5190   31.7170  -29.2950 O   0  0  0  0  0  0  0  0  0  0  0  0
   -5.8810   31.7880  -27.5550 C   0  0  0  0  0  0  0  0  0  0  0  0
   -4.8610   31.7410  -28.5550 O   0  0  0  0  0  0  0  0  0  0  0  0
    9.0120   22.2760  -55.8270 C   0  0  0  0  0  0  0  0  0  0  0  0
    8.9960   23.1630  -56.9560 O   0  0  0  0  0  0  0  0  0  0  0  0
    9.8320   21.0390  -56.1880 C   0  0  0  0  0  0  0  0  0  0  0  0
   11.1650   21.4200  -56.5180 O   0  0  0  0  0  0  0  0  0  0  0  0
  1  3  1  0  0  0  0
  1  2  1  0  0  0  0
  4  3  1  0  0  0  0
  5  6  1  0  0  0  0
  5  7  1  0  0  0  0
  7  8  1  0  0  0  0
  9 11  1  0  0  0  0
 10  9  1  0  0  0  0
 11 12  1  0  0  0  0
 14 13  1  0  0  0  0
 15 13  1  0  0  0  0
 15 16  1  0  0  0  0
 17 19  1  0  0  0  0
 18 17  1  0  0  0  0
 20 19  1  0  0  0  0
 22 21  1  0  0  0  0
 23 21  1  0  0  0  0
 24 23  1  0  0  0  0
M  END
$$$$
