/Users/chinazoemeh/HopeMScP/data/ligands/BRD4-BD1_BRD4-BD1_73_6G0F/BRD4-BD1_BRD4-BD1_73_6G0F.pdb
 OpenBabel07142514433D

  4  3  0  0  0  0  0  0  0  0999 V2000
  -24.6300   -2.4520   -6.2600 C   0  0  0  0  0  0  0  0  0  0  0  0
  -24.9770   -3.5760   -7.0710 O   0  0  0  0  0  0  0  0  0  0  0  0
  -23.6300   -1.5560   -7.0040 C   0  0  0  0  0  0  0  0  0  0  0  0
  -22.4310   -2.2800   -7.2910 O   0  0  0  0  0  0  0  0  0  0  0  0
  2  1  1  0  0  0  0
  3  1  1  0  0  0  0
  4  3  1  0  0  0  0
M  END
$$$$
