/Users/chinazoemeh/HopeMScP/data/ligands/BRD4-BD1_BRD4-BD1_37_8GPZ/BRD4-BD1_BRD4-BD1_37_8GPZ.pdb
 OpenBabel07142514423D

  6  4  0  0  0  0  0  0  0  0999 V2000
  -20.7200   17.7110   97.5700 C   0  0  0  0  0  0  0  0  0  0  0  0
  -21.3420   16.6580   97.6450 O   0  0  0  0  0  0  0  0  0  0  0  0
  -19.5160   17.7780   97.3280 O   0  0  0  0  0  0  0  0  0  0  0  0
   -8.1500  -14.0660   89.4470 C   0  0  0  0  0  0  0  0  0  0  0  0
   -9.3260  -14.2770   89.7150 O   0  0  0  0  0  0  0  0  0  0  0  0
   -7.5920  -12.9760   89.5830 O   0  0  0  0  0  0  0  0  0  0  0  0
  1  2  2  0  0  0  0
  3  1  1  0  0  0  0
  4  6  1  0  0  0  0
  4  5  2  0  0  0  0
M  END
$$$$
