/Users/chinazoemeh/HopeMScP/data/ligands/BRD4-BD1_BRD4-BD1_11_6JI4/BRD4-BD1_BRD4-BD1_11_6JI4.pdb
 OpenBabel07142514423D

 29 33  0  0  1  0  0  0  0  0999 V2000
   14.0490   43.9840    1.3200 C   0  0  0  0  0  0  0  0  0  0  0  0
   15.6570   39.7590    0.5210 C   0  0  0  0  0  0  0  0  0  0  0  0
   14.5860   39.6150   -2.3900 C   0  0  0  0  0  0  0  0  0  0  0  0
    9.5410   39.2150   -0.7000 C   0  0  0  0  0  0  0  0  0  0  0  0
   10.4910   41.2280    0.8100 C   0  0  0  0  0  0  0  0  0  0  0  0
   10.6560   40.1590   -0.3040 C   0  0  0  0  0  0  0  0  0  0  0  0
   11.9740   39.9280   -1.0700 C   0  0  0  0  0  0  0  0  0  0  0  0
   13.1610   40.8180   -0.7160 C   0  0  0  0  0  0  0  0  0  0  0  0
   13.0290   41.8760    0.3630 C   0  0  0  0  0  0  0  0  0  0  0  0
   11.7100   42.1120    1.1360 C   0  0  0  0  0  0  0  0  0  0  0  0
   14.4390   40.6730   -1.3950 N   0  0  0  0  0  0  0  0  0  0  0  0
   15.5690   40.9120   -0.5380 C   0  0  1  0  0  0  0  0  0  0  0  0
   15.5180   42.2550    0.1710 C   0  0  0  0  0  0  0  0  0  0  0  0
   14.2150   42.7050    0.6210 N   0  0  0  0  0  0  0  0  0  0  0  0
   16.4920   42.9030    0.3450 O   0  0  0  0  0  0  0  0  0  0  0  0
    8.8550   38.4490    0.1050 N   0  0  0  0  0  0  0  0  0  0  0  0
    7.9990   37.7300   -0.6710 N   0  0  0  0  0  0  0  0  0  0  0  0
    8.2060   38.0730   -1.9320 C   0  0  0  0  0  0  0  0  0  0  0  0
    9.1800   38.9730   -1.9620 N   0  0  0  0  0  0  0  0  0  0  0  0
    9.6840   39.6520   -3.1470 C   0  0  0  0  0  0  0  0  0  0  0  0
   10.4400   38.9250   -4.2590 C   0  0  0  0  0  0  0  0  0  0  0  0
   10.9090   39.7460   -5.4600 C   0  0  0  0  0  0  0  0  0  0  0  0
   10.6190   41.2470   -5.5200 C   0  0  0  0  0  0  0  0  0  0  0  0
    9.8630   41.9650   -4.4090 C   0  0  0  0  0  0  0  0  0  0  0  0
    9.3940   41.1520   -3.2110 C   0  0  0  0  0  0  0  0  0  0  0  0
   11.0910   42.0710   -6.7200 C   0  0  0  0  0  0  0  0  0  0  0  0
    7.4950   37.5320   -3.1830 C   0  0  0  0  0  0  0  0  0  0  0  0
   14.0990   39.6640   -3.8370 C   0  0  0  0  0  0  0  0  0  0  0  0
   15.5910   39.5310   -3.5310 C   0  0  0  0  0  0  0  0  0  0  0  0
  3 11  1  0  0  0  0
  4  6  1  0  0  0  0
  4 16  2  0  0  0  0
  5 10  1  0  0  0  0
  6  5  2  0  0  0  0
  7  8  2  0  0  0  0
  7  6  1  0  0  0  0
  8  9  1  0  0  0  0
  9 14  1  0  0  0  0
  9 10  2  0  0  0  0
 11  8  1  0  0  0  0
 11 12  1  0  0  0  0
 12 13  1  0  0  0  0
 12  2  1  1  0  0  0
 13 15  2  0  0  0  0
 13 14  1  0  0  0  0
 14  1  1  0  0  0  0
 17 16  1  0  0  0  0
 18 17  2  0  0  0  0
 19 18  1  0  0  0  0
 19  4  1  0  0  0  0
 20 19  1  0  0  0  0
 21 20  2  0  0  0  0
 22 21  1  0  0  0  0
 23 22  2  0  0  0  0
 23 24  1  0  0  0  0
 24 25  2  0  0  0  0
 25 20  1  0  0  0  0
 26 23  1  0  0  0  0
 27 18  1  0  0  0  0
 28 29  1  0  0  0  0
 28  3  1  0  0  0  0
 29  3  1  0  0  0  0
M  END
$$$$
