/Users/chinazoemeh/HopeMScP/data/ligands/BRD4-BD1_BRD4-BD1_88_5M39/BRD4-BD1_BRD4-BD1_88_5M39.pdb
 OpenBabel07142514433D

 40 44  0  0  0  0  0  0  0  0999 V2000
   -9.1230   -5.7880   -7.3040 N   0  0  0  0  0  0  0  0  0  0  0  0
  -10.6820   -7.1470   -6.1450 C   0  0  0  0  0  0  0  0  0  0  0  0
   -8.3080   -7.7770   -4.4140 C   0  0  0  0  0  0  0  0  0  0  0  0
   -6.9060   -7.1620   -6.2990 C   0  0  0  0  0  0  0  0  0  0  0  0
  -11.7380   -6.6720   -6.8890 C   0  0  0  0  0  0  0  0  0  0  0  0
   -5.7890   -7.6800   -5.6620 C   0  0  0  0  0  0  0  0  0  0  0  0
   -5.9360   -8.2530   -4.3980 C   0  0  0  0  0  0  0  0  0  0  0  0
   -8.9390   -3.6160   -9.4550 C   0  0  0  0  0  0  0  0  0  0  0  0
   -3.5550   -8.6980   -4.2730 C   0  0  0  0  0  0  0  0  0  0  0  0
   -9.3600   -6.6810   -6.3900 C   0  0  0  0  0  0  0  0  0  0  0  0
  -11.4840   -5.6790   -7.8630 C   0  0  0  0  0  0  0  0  0  0  0  0
  -10.1870   -4.3200   -8.9820 C   0  0  0  0  0  0  0  0  0  0  0  0
   -8.5630   -8.9690   -1.9170 C   0  0  0  0  0  0  0  0  0  0  0  0
   -8.1700   -7.2160   -5.6810 C   0  0  0  0  0  0  0  0  0  0  0  0
   -7.1860   -8.2970   -3.7780 C   0  0  0  0  0  0  0  0  0  0  0  0
  -12.2090   -4.9590   -8.7170 N   0  0  0  0  0  0  0  0  0  0  0  0
  -11.4240   -4.1770   -9.3820 N   0  0  0  0  0  0  0  0  0  0  0  0
  -10.1850   -5.2550   -8.0300 N   0  0  0  0  0  0  0  0  0  0  0  0
   -7.2800   -8.8850   -2.5520 O   0  0  0  0  0  0  0  0  0  0  0  0
   -4.8760   -8.7860   -3.7190 O   0  0  0  0  0  0  0  0  0  0  0  0
    6.9530   13.8860  -47.6140 N   0  0  0  0  0  0  0  0  0  0  0  0
    8.5370   12.4930  -48.6940 C   0  0  0  0  0  0  0  0  0  0  0  0
    6.1900   11.8350  -50.4400 C   0  0  0  0  0  0  0  0  0  0  0  0
    4.7650   12.4790  -48.5880 C   0  0  0  0  0  0  0  0  0  0  0  0
    9.5720   12.9810  -47.9400 C   0  0  0  0  0  0  0  0  0  0  0  0
    3.6540   11.9270  -49.2070 C   0  0  0  0  0  0  0  0  0  0  0  0
    3.8170   11.3570  -50.4710 C   0  0  0  0  0  0  0  0  0  0  0  0
    6.7280   16.1250  -45.5110 C   0  0  0  0  0  0  0  0  0  0  0  0
    1.4570   10.8330  -50.5730 C   0  0  0  0  0  0  0  0  0  0  0  0
    7.2160   12.9810  -48.5000 C   0  0  0  0  0  0  0  0  0  0  0  0
    9.2920   14.0030  -46.9960 C   0  0  0  0  0  0  0  0  0  0  0  0
    7.9700   15.3820  -45.9380 C   0  0  0  0  0  0  0  0  0  0  0  0
    6.5030   10.6400  -52.8900 C   0  0  0  0  0  0  0  0  0  0  0  0
    6.0300   12.4390  -49.2070 C   0  0  0  0  0  0  0  0  0  0  0  0
    5.0770   11.3250  -51.0810 C   0  0  0  0  0  0  0  0  0  0  0  0
   10.0080   14.7670  -46.1700 N   0  0  0  0  0  0  0  0  0  0  0  0
    9.1950   15.5710  -45.5530 N   0  0  0  0  0  0  0  0  0  0  0  0
    7.9920   14.4300  -46.8710 N   0  0  0  0  0  0  0  0  0  0  0  0
    5.2040   10.7080  -52.2820 O   0  0  0  0  0  0  0  0  0  0  0  0
    2.7710   10.7870  -51.1510 O   0  0  0  0  0  0  0  0  0  0  0  0
  1 10  2  0  0  0  0
  3 15  1  0  0  0  0
  4 14  1  0  0  0  0
  4  6  2  0  0  0  0
  5  2  2  0  0  0  0
  6  7  1  0  0  0  0
  7 15  2  0  0  0  0
  7 20  1  0  0  0  0
  8 12  1  0  0  0  0
  9 20  1  0  0  0  0
 10  2  1  0  0  0  0
 10 14  1  0  0  0  0
 11  5  1  0  0  0  0
 12 18  1  0  0  0  0
 14  3  2  0  0  0  0
 15 19  1  0  0  0  0
 16 11  2  0  0  0  0
 17 12  2  0  0  0  0
 17 16  1  0  0  0  0
 18 11  1  0  0  0  0
 18  1  1  0  0  0  0
 19 13  1  0  0  0  0
 21 38  1  0  0  0  0
 22 30  1  0  0  0  0
 22 25  2  0  0  0  0
 23 34  1  0  0  0  0
 25 31  1  0  0  0  0
 26 24  1  0  0  0  0
 27 26  2  0  0  0  0
 30 21  2  0  0  0  0
 31 38  1  0  0  0  0
 31 36  2  0  0  0  0
 32 37  2  0  0  0  0
 32 28  1  0  0  0  0
 33 39  1  0  0  0  0
 34 24  2  0  0  0  0
 34 30  1  0  0  0  0
 35 27  1  0  0  0  0
 35 23  2  0  0  0  0
 36 37  1  0  0  0  0
 38 32  1  0  0  0  0
 39 35  1  0  0  0  0
 40 29  1  0  0  0  0
 40 27  1  0  0  0  0
M  END
$$$$
