/Users/chinazoemeh/HopeMScP/data/ligands/BRD4-BD1_BRD4-BD1_102_6U6K/BRD4-BD1_BRD4-BD1_102_6U6K.pdb
 OpenBabel07142514433D

 24 22  0  0  1  0  0  0  0  0999 V2000
  -13.6550   26.9430    5.0170 O   0  0  0  0  0  0  0  0  0  0  0  0
  -13.2980   27.1830    6.1870 C   0  0  0  0  0  0  0  0  0  0  0  0
  -13.6340   26.2380    7.3250 C   0  0  0  0  0  0  0  0  0  0  0  0
  -12.5800   28.3260    6.4920 N   0  0  0  0  0  0  0  0  0  0  0  0
  -12.1950   29.2890    5.4880 C   0  0  0  0  0  0  0  0  0  0  0  0
  -10.8890   28.8980    4.7710 C   0  0  0  0  0  0  0  0  0  0  0  0
  -10.4450   29.9390    3.7580 C   0  0  0  0  0  0  0  0  0  0  0  0
   -9.3600   29.3750    2.8300 C   0  0  0  0  0  0  0  0  0  0  0  0
   -8.0610   29.0890    3.6110 C   0  0  2  0  0  0  0  0  0  0  0  0
   -7.5490   30.2600    4.3250 N   0  0  0  0  0  0  0  0  0  0  0  0
   -7.0470   28.4500    2.6340 C   0  0  0  0  0  0  0  0  0  0  0  0
   -6.9150   27.2290    2.4770 O   0  0  0  0  0  0  0  0  0  0  0  0
   -0.7010   20.8680    6.0080 O   0  0  0  0  0  0  0  0  0  0  0  0
   -1.7470   21.4970    5.7630 C   0  0  0  0  0  0  0  0  0  0  0  0
   -2.6000   21.1590    4.5610 C   0  0  0  0  0  0  0  0  0  0  0  0
   -2.1890   22.5490    6.5480 N   0  0  0  0  0  0  0  0  0  0  0  0
   -1.5480   23.0550    7.7270 C   0  0  0  0  0  0  0  0  0  0  0  0
   -2.0030   24.4620    8.0860 C   0  0  0  0  0  0  0  0  0  0  0  0
   -1.5750   25.4330    6.9970 C   0  0  0  0  0  0  0  0  0  0  0  0
   -2.1230   26.8030    7.3030 C   0  0  0  0  0  0  0  0  0  0  0  0
   -1.6060   27.9230    6.3790 C   0  0  2  0  0  0  0  0  0  0  0  0
   -1.8080   27.7180    4.9690 N   0  0  0  0  0  0  0  0  0  0  0  0
   -0.1190   28.1010    6.6170 C   0  0  0  0  0  0  0  0  0  0  0  0
    0.7580   27.7000    5.8450 O   0  0  0  0  0  0  0  0  0  0  0  0
  1  2  2  0  0  0  0
  2  4  1  0  0  0  0
  2  3  1  0  0  0  0
  5  4  1  0  0  0  0
  6  5  1  0  0  0  0
  7  6  1  0  0  0  0
  8  9  1  0  0  0  0
  8  7  1  0  0  0  0
  9 10  1  6  0  0  0
 11  9  1  0  0  0  0
 12 11  2  0  0  0  0
 14 13  2  0  0  0  0
 14 16  1  0  0  0  0
 15 14  1  0  0  0  0
 16 17  1  0  0  0  0
 17 18  1  0  0  0  0
 19 20  1  0  0  0  0
 19 18  1  0  0  0  0
 21 22  1  6  0  0  0
 21 23  1  0  0  0  0
 21 20  1  0  0  0  0
 24 23  2  0  0  0  0
M  END
$$$$
