/Users/chinazoemeh/HopeMScP/data/ligands/BRD4-BD1_BRD4-BD1_46_7MR6/BRD4-BD1_BRD4-BD1_46_7MR6.pdb
 OpenBabel07142514433D

 98105  0  0  1  0  0  0  0  0999 V2000
   -3.6090    2.8070    5.8800 C   0  0  0  0  0  0  0  0  0  0  0  0
   -4.3480   -1.8060    4.2770 C   0  0  0  0  0  0  0  0  0  0  0  0
   -1.2810   -4.1520    3.6800 C   0  0  0  0  0  0  0  0  0  0  0  0
   -1.5840   -5.3720    4.5600 C   0  0  0  0  0  0  0  0  0  0  0  0
   -3.7740   -7.8230    2.6680 C   0  0  0  0  0  0  0  0  0  0  0  0
   -6.0210   -7.3630    2.2000 C   0  0  0  0  0  0  0  0  0  0  0  0
   -9.4300    8.0270   10.3590 C   0  0  0  0  0  0  0  0  0  0  0  0
   -8.1340    7.5860    9.6880 C   0  0  0  0  0  0  0  0  0  0  0  0
   -6.8760    7.9890   10.1070 C   0  0  0  0  0  0  0  0  0  0  0  0
   -5.9300    6.7460    8.4520 C   0  0  0  0  0  0  0  0  0  0  0  0
   -4.3960    5.0980    7.1390 C   0  0  0  0  0  0  0  0  0  0  0  0
   -3.0600    4.9020    6.8310 C   0  0  0  0  0  0  0  0  0  0  0  0
   -2.6500    3.7380    6.2120 C   0  0  0  0  0  0  0  0  0  0  0  0
   -3.0940    1.5120    5.2740 C   0  0  0  0  0  0  0  0  0  0  0  0
   -3.3680   -0.7100    4.2960 C   0  0  1  0  0  0  0  0  0  0  0  0
   -3.6220   -3.1410    4.1970 C   0  0  0  0  0  0  0  0  0  0  0  0
   -2.0120   -1.8850    2.6390 C   0  0  0  0  0  0  0  0  0  0  0  0
   -2.7040   -0.5700    2.9890 C   0  0  0  0  0  0  0  0  0  0  0  0
   -0.7650   -6.5930    4.1400 C   0  0  0  0  0  0  0  0  0  0  0  0
   -2.4780   -7.0240    2.4950 C   0  0  0  0  0  0  0  0  0  0  0  0
   -7.2530   -6.7430    2.8510 C   0  0  0  0  0  0  0  0  0  0  0  0
   -7.4150   -8.6360    4.2500 C   0  0  0  0  0  0  0  0  0  0  0  0
   -8.4340   -9.0350    5.3190 C   0  0  0  0  0  0  0  0  0  0  0  0
  -10.2460   -9.3390    3.8690 C   0  0  0  0  0  0  0  0  0  0  0  0
  -11.4880  -10.0610    4.3990 C   0  0  0  0  0  0  0  0  0  0  0  0
  -12.6030   -9.0670    4.6960 C   0  0  0  0  0  0  0  0  0  0  0  0
  -13.9610   -9.9380    2.6630 C   0  0  0  0  0  0  0  0  0  0  0  0
  -14.1150   -9.1180    1.3910 C   0  0  0  0  0  0  0  0  0  0  0  0
  -15.1800   -8.0910    1.4840 C   0  0  1  0  0  0  0  0  0  0  0  0
  -15.1450   -7.2780    2.7250 C   0  0  0  0  0  0  0  0  0  0  0  0
  -14.9430   -8.1140    3.9910 C   0  0  0  0  0  0  0  0  0  0  0  0
  -15.5630   -7.5090   -0.9620 C   0  0  0  0  0  0  0  0  0  0  0  0
  -15.3220   -6.5440   -2.1320 C   0  0  0  0  0  0  0  0  0  0  0  0
  -16.3960   -5.9310   -2.7530 C   0  0  0  0  0  0  0  0  0  0  0  0
  -16.1650   -5.0600   -3.8080 C   0  0  0  0  0  0  0  0  0  0  0  0
  -14.8640   -4.8060   -4.2250 C   0  0  0  0  0  0  0  0  0  0  0  0
  -13.4590   -3.3800   -5.8970 C   0  0  0  0  0  0  0  0  0  0  0  0
  -11.1780   -3.1850   -5.9350 C   0  0  0  0  0  0  0  0  0  0  0  0
   -9.5080   -3.9990   -4.1170 C   0  0  0  0  0  0  0  0  0  0  0  0
   -8.2020   -4.4190   -3.9460 C   0  0  0  0  0  0  0  0  0  0  0  0
   -7.7860   -4.9120   -2.7260 C   0  0  0  0  0  0  0  0  0  0  0  0
   -8.6940   -4.9740   -1.6890 C   0  0  0  0  0  0  0  0  0  0  0  0
   -9.9980   -4.5530   -1.8490 C   0  0  0  0  0  0  0  0  0  0  0  0
  -11.0660   -2.3490    0.9860 C   0  0  0  0  0  0  0  0  0  0  0  0
  -12.0750   -1.3610    1.5750 C   0  0  0  0  0  0  0  0  0  0  0  0
  -10.0120   -1.5960    0.2010 C   0  0  0  0  0  0  0  0  0  0  0  0
  -10.4200   -3.1710    2.1010 C   0  0  0  0  0  0  0  0  0  0  0  0
  -10.4200   -4.0520   -3.0670 C   0  0  0  0  0  0  0  0  0  0  0  0
  -11.2950   -2.3600   -7.0460 C   0  0  0  0  0  0  0  0  0  0  0  0
  -10.0710   -1.7630   -7.7060 C   0  0  0  0  0  0  0  0  0  0  0  0
  -12.5500   -2.0700   -7.5560 C   0  0  0  0  0  0  0  0  0  0  0  0
  -13.7970   -5.4260   -3.6100 C   0  0  0  0  0  0  0  0  0  0  0  0
  -14.0230   -6.2950   -2.5550 C   0  0  0  0  0  0  0  0  0  0  0  0
   -4.9450    2.9900    6.2000 C   0  0  0  0  0  0  0  0  0  0  0  0
   -5.3670    4.1660    6.8220 C   0  0  0  0  0  0  0  0  0  0  0  0
   -8.2010    6.7460    8.6190 C   0  0  0  0  0  0  0  0  0  0  0  0
   -9.8440    5.5420    7.0700 C   0  0  0  0  0  0  0  0  0  0  0  0
  -11.0170    4.8030    7.1520 C   0  0  0  0  0  0  0  0  0  0  0  0
  -11.3730    4.0090    6.0880 C   0  0  0  0  0  0  0  0  0  0  0  0
  -14.8460    3.4760    7.8580 C   0  0  0  0  0  0  0  0  0  0  0  0
  -15.5120    3.6810    6.4890 C   0  0  0  0  0  0  0  0  0  0  0  0
  -15.7880    2.7240    8.7950 C   0  0  0  0  0  0  0  0  0  0  0  0
  -14.4820    4.8190    8.4900 C   0  0  0  0  0  0  0  0  0  0  0  0
  -10.5730    3.9630    4.9670 C   0  0  0  0  0  0  0  0  0  0  0  0
   -9.3900    4.6970    4.8760 C   0  0  0  0  0  0  0  0  0  0  0  0
   -9.0240    5.5100    5.9470 C   0  0  0  0  0  0  0  0  0  0  0  0
  -12.9690   -6.8970   -1.9380 F   0  0  0  0  0  0  0  0  0  0  0  0
   -5.8720    2.0470    5.8960 F   0  0  0  0  0  0  0  0  0  0  0  0
   -5.8100    7.5410    9.4790 N   0  0  0  0  0  0  0  0  0  0  0  0
   -4.7030    6.3590    7.7920 N   0  0  0  0  0  0  0  0  0  0  0  0
   -4.0050    0.5250    4.7470 N   0  0  0  0  0  0  0  0  0  0  0  0
   -2.2760   -3.0900    3.5130 N   0  0  0  0  0  0  0  0  0  0  0  0
  -13.7720   -9.0380    3.8390 N   0  0  0  0  0  0  0  0  0  0  0  0
  -14.9850   -7.1950    0.3480 N   0  0  0  0  0  0  0  0  0  0  0  0
  -14.7020   -3.8860   -5.3430 N   0  0  0  0  0  0  0  0  0  0  0  0
  -12.2760   -3.6720   -5.3800 N   0  0  0  0  0  4  0  0  0  0  0  0
   -9.8440   -3.4770   -5.4330 N   0  0  0  0  0  0  0  0  0  0  0  0
  -10.8890   -4.6710   -0.7040 N   0  0  0  0  0  0  0  0  0  0  0  0
  -13.5850   -2.6070   -6.9550 N   0  0  0  0  0  0  0  0  0  0  0  0
   -7.1020    6.3400    8.0190 N   0  0  0  0  0  4  0  0  0  0  0  0
   -9.5470    6.3540    8.2340 N   0  0  0  0  0  0  0  0  0  0  0  0
  -12.5920    3.2040    6.1340 N   0  0  0  0  0  0  0  0  0  0  0  0
   -1.9220    1.2820    5.3430 O   0  0  0  0  0  0  0  0  0  0  0  0
   -0.2330   -4.0830    3.1260 O   0  0  0  0  0  0  0  0  0  0  0  0
   -1.5070   -7.5170    3.3810 O   0  0  0  0  0  0  0  0  0  0  0  0
   -4.8550   -6.9500    2.8660 O   0  0  0  0  0  0  0  0  0  0  0  0
   -7.3920   -7.2390    4.1530 O   0  0  0  0  0  0  0  0  0  0  0  0
   -9.6970   -8.5900    4.9140 O   0  0  0  0  0  0  0  0  0  0  0  0
  -12.5040   -8.3150    5.6070 O   0  0  0  0  0  0  0  0  0  0  0  0
  -16.2080   -8.4860   -1.1370 O   0  0  0  0  0  0  0  0  0  0  0  0
  -13.1360   -3.9470    0.4420 O   0  0  0  0  0  0  0  0  0  0  0  0
  -12.4730   -2.6070   -1.2830 O   0  0  0  0  0  0  0  0  0  0  0  0
  -13.5310    1.1120    7.3670 O   0  0  0  0  0  0  0  0  0  0  0  0
  -12.4500    2.6020    8.7260 O   0  0  0  0  0  0  0  0  0  0  0  0
  -11.9300   -3.4160   -0.1970 S   0  0  0  0  0  0  0  0  0  0  0  0
  -13.2960    2.5410    7.5400 S   0  0  0  0  0  0  0  0  0  0  0  0
   -8.1900   -5.5990   -0.0990 Cl  0  0  0  0  0  0  0  0  0  0  0  0
  -11.1130    2.9190    3.6240 Cl  0  0  0  0  0  0  0  0  0  0  0  0
  1 54  2  0  0  0  0
  1 13  1  0  0  0  0
  2 15  1  0  0  0  0
  3  4  1  0  0  0  0
  5 86  1  0  0  0  0
  6 21  1  0  0  0  0
  6 86  1  0  0  0  0
  8  9  2  0  0  0  0
  8  7  1  0  0  0  0
 10 69  2  0  0  0  0
 11 70  1  0  0  0  0
 12 11  1  0  0  0  0
 13 12  2  0  0  0  0
 14 83  2  0  0  0  0
 14  1  1  0  0  0  0
 15 71  1  6  0  0  0
 16  2  1  0  0  0  0
 17 18  1  0  0  0  0
 17 72  1  0  0  0  0
 18 15  1  0  0  0  0
 19  4  1  0  0  0  0
 20  5  1  0  0  0  0
 20 85  1  0  0  0  0
 21 87  1  0  0  0  0
 22 23  1  0  0  0  0
 24 25  1  0  0  0  0
 24 88  1  0  0  0  0
 25 26  1  0  0  0  0
 26 89  2  0  0  0  0
 27 73  1  0  0  0  0
 28 29  1  0  0  0  0
 28 27  1  0  0  0  0
 29 74  1  6  0  0  0
 29 30  1  0  0  0  0
 30 31  1  0  0  0  0
 32 74  1  0  0  0  0
 33 32  1  0  0  0  0
 34 33  2  0  0  0  0
 35 34  1  0  0  0  0
 36 35  2  0  0  0  0
 36 52  1  0  0  0  0
 37 76  2  0  0  0  0
 37 75  1  0  0  0  0
 38 77  1  0  0  0  0
 38 76  2  0  0  0  0
 39 40  2  0  0  0  0
 39 48  1  0  0  0  0
 40 41  1  0  0  0  0
 41 42  2  0  0  0  0
 42 97  1  0  0  0  0
 43 42  1  0  0  0  0
 43 78  1  0  0  0  0
 44 45  1  0  0  0  0
 44 47  1  0  0  0  0
 46 44  1  0  0  0  0
 48 43  2  0  0  0  0
 49 38  1  0  0  0  0
 50 49  1  0  0  0  0
 51 49  2  0  0  0  0
 51 79  1  0  0  0  0
 52 53  2  0  0  0  0
 53 33  1  0  0  0  0
 53 67  1  0  0  0  0
 54 55  1  0  0  0  0
 55 11  2  0  0  0  0
 56  8  1  0  0  0  0
 57 58  1  0  0  0  0
 57 81  1  0  0  0  0
 59 82  1  0  0  0  0
 59 58  2  0  0  0  0
 60 63  1  0  0  0  0
 60 62  1  0  0  0  0
 61 60  1  0  0  0  0
 64 59  1  0  0  0  0
 65 64  2  0  0  0  0
 65 66  1  0  0  0  0
 66 57  2  0  0  0  0
 68 54  1  0  0  0  0
 69  9  1  0  0  0  0
 70 10  1  0  0  0  0
 71 14  1  0  0  0  0
 72  3  1  0  0  0  0
 72 16  1  0  0  0  0
 73 31  1  0  0  0  0
 73 26  1  0  0  0  0
 75 36  1  0  0  0  0
 77 39  1  0  0  0  0
 78 95  1  0  0  0  0
 79 37  2  0  0  0  0
 80 10  2  0  0  0  0
 80 56  2  0  0  0  0
 81 56  1  0  0  0  0
 82 96  1  0  0  0  0
 84  3  2  0  0  0  0
 85 19  1  0  0  0  0
 87 22  1  0  0  0  0
 88 23  1  0  0  0  0
 90 32  2  0  0  0  0
 92 95  2  0  0  0  0
 93 96  2  0  0  0  0
 95 91  2  0  0  0  0
 95 44  1  0  0  0  0
 96 60  1  0  0  0  0
 96 94  2  0  0  0  0
 98 64  1  0  0  0  0
M  END
$$$$
