/Users/chinazoemeh/HopeMScP/data/ligands/BRD4-BD1_BRD4-BD1_103_7KHL/BRD4-BD1_BRD4-BD1_103_7KHL.pdb
 OpenBabel07142514433D

 37 41  0  0  0  0  0  0  0  0999 V2000
   -8.7010   18.5820    8.6020 C   0  0  0  0  0  0  0  0  0  0  0  0
  -10.1210   18.8990    8.5210 C   0  0  0  0  0  0  0  0  0  0  0  0
  -10.8280   19.7430    7.6740 C   0  0  0  0  0  0  0  0  0  0  0  0
  -10.5890   17.3950   10.3960 C   0  0  0  0  0  0  0  0  0  0  0  0
  -12.1390   19.6830    8.0360 C   0  0  0  0  0  0  0  0  0  0  0  0
  -11.0360   18.3160    9.4180 C   0  0  0  0  0  0  0  0  0  0  0  0
  -10.2610   20.5580    6.5350 C   0  0  0  0  0  0  0  0  0  0  0  0
   -9.2600   17.1030   10.3950 N   0  0  0  0  0  0  0  0  0  0  0  0
   -8.3530   17.6630    9.5500 C   0  0  0  0  0  0  0  0  0  0  0  0
   -8.7430   16.1150   11.3430 C   0  0  0  0  0  0  0  0  0  0  0  0
  -12.2690   18.8120    9.1060 N   0  0  0  0  0  0  0  0  0  0  0  0
  -11.3850   16.8700   11.1770 O   0  0  0  0  0  0  0  0  0  0  0  0
   -9.2700   19.6840    5.9230 N   0  0  0  0  0  0  0  0  0  0  0  0
   -7.9910   19.7100    6.4670 C   0  0  0  0  0  0  0  0  0  0  0  0
   -7.6930   19.2190    7.7220 C   0  0  0  0  0  0  0  0  0  0  0  0
   -6.3840   19.2950    8.2300 C   0  0  0  0  0  0  0  0  0  0  0  0
   -5.3720   19.8320    7.4570 C   0  0  0  0  0  0  0  0  0  0  0  0
   -5.6700   20.3930    6.1810 C   0  0  0  0  0  0  0  0  0  0  0  0
   -6.9740   20.3160    5.6960 C   0  0  0  0  0  0  0  0  0  0  0  0
   -4.6810   21.0340    5.2790 C   0  0  0  0  0  0  0  0  0  0  0  0
   -5.0630   21.8700    4.4730 O   0  0  0  0  0  0  0  0  0  0  0  0
   -3.3880   20.6660    5.2720 O   0  0  0  0  0  0  0  0  0  0  0  0
   -2.3930   21.6750    4.9150 C   0  0  0  0  0  0  0  0  0  0  0  0
   -3.9940   19.8850    8.1040 C   0  0  0  0  0  0  0  0  0  0  0  0
   -3.8470   21.3750    9.1430 S   0  0  0  0  0  0  0  0  0  0  0  0
   -3.8790   22.5040    8.2640 O   0  0  0  0  0  0  0  0  0  0  0  0
   -4.7800   21.3100   10.2110 O   0  0  0  0  0  0  0  0  0  0  0  0
   -2.1870   21.4060    9.8480 C   0  0  0  0  0  0  0  0  0  0  0  0
   -9.7010   18.6190    5.0960 C   0  0  0  0  0  0  0  0  0  0  0  0
   -8.8390   17.5590    4.7440 C   0  0  0  0  0  0  0  0  0  0  0  0
   -9.3230   16.4820    4.0100 C   0  0  0  0  0  0  0  0  0  0  0  0
  -10.6750   16.4860    3.6750 C   0  0  0  0  0  0  0  0  0  0  0  0
  -11.4780   17.5340    4.0640 C   0  0  0  0  0  0  0  0  0  0  0  0
  -10.9980   18.5360    4.7690 N   0  0  0  0  0  0  0  0  0  0  0  0
  -11.2280   15.4880    2.9570 F   0  0  0  0  0  0  0  0  0  0  0  0
   -7.5190   17.5630    5.0460 F   0  0  0  0  0  0  0  0  0  0  0  0
  -13.1000   18.5850    9.5520 H   0  0  0  0  0  0  0  0  0  0  0  0
  1  9  2  0  0  0  0
  2  1  1  0  0  0  0
  2  6  2  0  0  0  0
  3  5  2  0  0  0  0
  3  2  1  0  0  0  0
  4 12  2  0  0  0  0
  5 11  1  0  0  0  0
  6  4  1  0  0  0  0
  7  3  1  0  0  0  0
  8  4  1  0  0  0  0
  8 10  1  0  0  0  0
  9  8  1  0  0  0  0
 11  6  1  0  0  0  0
 11 37  1  0  0  0  0
 13 14  1  0  0  0  0
 13  7  1  0  0  0  0
 14 15  1  0  0  0  0
 15 16  2  0  0  0  0
 15  1  1  0  0  0  0
 17 24  1  0  0  0  0
 17 16  1  0  0  0  0
 18 17  2  0  0  0  0
 19 18  1  0  0  0  0
 19 14  2  0  0  0  0
 20 18  1  0  0  0  0
 21 20  2  0  0  0  0
 22 20  1  0  0  0  0
 23 22  1  0  0  0  0
 24 25  1  0  0  0  0
 25 28  1  0  0  0  0
 25 27  2  0  0  0  0
 26 25  2  0  0  0  0
 29 13  1  0  0  0  0
 30 36  1  0  0  0  0
 30 29  2  0  0  0  0
 31 30  1  0  0  0  0
 32 31  2  0  0  0  0
 32 33  1  0  0  0  0
 33 34  2  0  0  0  0
 34 29  1  0  0  0  0
 35 32  1  0  0  0  0
M  END
$$$$
