/Users/chinazoemeh/HopeMScP/data/ligands/BRD4-BD1_BRD4-BD1_68_6P05/BRD4-BD1_BRD4-BD1_68_6P05.pdb
 OpenBabel07142514423D

 28 26  0  0  0  0  0  0  0  0999 V2000
    1.2980   -9.0780   22.3050 C   0  0  0  0  0  0  0  0  0  0  0  0
    0.0430   -9.3640   23.0170 O   0  0  0  0  0  0  0  0  0  0  0  0
    2.1280   -8.0980   23.1290 C   0  0  0  0  0  0  0  0  0  0  0  0
    1.3720   -6.8610   23.3490 O   0  0  0  0  0  0  0  0  0  0  0  0
    2.3600   -8.8570   24.3840 C   0  0  0  0  0  0  0  0  0  0  0  0
    3.2840   -8.2490   25.1940 O   0  0  0  0  0  0  0  0  0  0  0  0
    1.0820   -8.6500   21.3250 H   0  0  0  0  0  0  0  0  0  0  0  0
    1.8520  -10.0060   22.1440 H   0  0  0  0  0  0  0  0  0  0  0  0
   -0.4380  -10.0640   22.5550 H   0  0  0  0  0  0  0  0  0  0  0  0
    3.0850   -7.8920   22.6320 H   0  0  0  0  0  0  0  0  0  0  0  0
    0.5220   -7.0710   23.7600 H   0  0  0  0  0  0  0  0  0  0  0  0
    2.7420   -9.8430   24.1260 H   0  0  0  0  0  0  0  0  0  0  0  0
    1.4270   -8.9810   24.9370 H   0  0  0  0  0  0  0  0  0  0  0  0
    2.9420   -7.3930   25.4870 H   0  0  0  0  0  0  0  0  0  0  0  0
    6.3570   24.8440    6.1890 C   0  0  0  0  0  0  0  0  0  0  0  0
    6.5310   24.7710    7.5680 O   0  0  0  0  0  0  0  0  0  0  0  0
    7.3690   25.7860    5.4590 C   0  0  0  0  0  0  0  0  0  0  0  0
    6.9650   25.7770    4.1010 O   0  0  0  0  0  0  0  0  0  0  0  0
    7.2430   27.2320    5.9600 C   0  0  0  0  0  0  0  0  0  0  0  0
    5.8930   27.7290    5.8990 O   0  0  0  0  0  0  0  0  0  0  0  0
    5.3390   25.1750    5.9870 H   0  0  0  0  0  0  0  0  0  0  0  0
    6.4570   23.8390    5.7740 H   0  0  0  0  0  0  0  0  0  0  0  0
    6.1750   25.5680    7.9810 H   0  0  0  0  0  0  0  0  0  0  0  0
    8.3980   25.4200    5.5740 H   0  0  0  0  0  0  0  0  0  0  0  0
    7.6780   26.1280    3.5510 H   0  0  0  0  0  0  0  0  0  0  0  0
    7.8850   27.8770    5.3580 H   0  0  0  0  0  0  0  0  0  0  0  0
    7.5970   27.2850    6.9920 H   0  0  0  0  0  0  0  0  0  0  0  0
    5.3340   27.2260    6.5010 H   0  0  0  0  0  0  0  0  0  0  0  0
  1  2  1  0  0  0  0
  1  3  1  0  0  0  0
  3  4  1  0  0  0  0
  3  5  1  0  0  0  0
  4 11  1  0  0  0  0
  5 13  1  0  0  0  0
  5  6  1  0  0  0  0
  6 14  1  0  0  0  0
  7  1  1  0  0  0  0
  8  1  1  0  0  0  0
  9  2  1  0  0  0  0
 10  3  1  0  0  0  0
 12  5  1  0  0  0  0
 15 16  1  0  0  0  0
 16 23  1  0  0  0  0
 17 24  1  0  0  0  0
 17 19  1  0  0  0  0
 17 15  1  0  0  0  0
 18 17  1  0  0  0  0
 19 27  1  0  0  0  0
 20 19  1  0  0  0  0
 20 28  1  0  0  0  0
 21 15  1  0  0  0  0
 22 15  1  0  0  0  0
 25 18  1  0  0  0  0
 26 19  1  0  0  0  0
M  END
$$$$
