/Users/chinazoemeh/HopeMScP/data/ligands/BRD4-BD1_BRD4-BD1_57_5U2E/BRD4-BD1_BRD4-BD1_57_5U2E.pdb
 OpenBabel07142514433D

 54 60  0  0  1  0  0  0  0  0999 V2000
  -34.0580   12.7590   -4.2940 C   0  0  0  0  0  0  0  0  0  0  0  0
  -31.5230   14.7520   -6.3170 C   0  0  0  0  0  0  0  0  0  0  0  0
  -32.1030   16.6950   -4.8090 C   0  0  0  0  0  0  0  0  0  0  0  0
  -32.2530   17.9060   -4.0170 C   0  0  0  0  0  0  0  0  0  0  0  0
  -36.4230   17.5460    0.1290 C   0  0  0  0  0  0  0  0  0  0  0  0
  -36.7110   15.3380   -0.3630 C   0  0  0  0  0  0  0  0  0  0  0  0
  -38.6480    8.3240   -7.0710 C   0  0  0  0  0  0  0  0  0  0  0  0
  -37.5640    8.1710   -6.0000 C   0  0  0  0  0  0  0  0  0  0  0  0
  -36.4340    8.9430   -6.3270 O   0  0  0  0  0  0  0  0  0  0  0  0
  -35.9120    9.5680   -5.1930 C   0  0  0  0  0  0  0  0  0  0  0  0
  -36.1560    9.0990   -4.1240 O   0  0  0  0  0  0  0  0  0  0  0  0
  -35.0670   10.8410   -5.3100 C   0  0  0  0  0  0  0  0  0  0  0  0
  -34.5440   11.2310   -6.5330 C   0  0  0  0  0  0  0  0  0  0  0  0
  -33.7770   12.3900   -6.6520 C   0  0  0  0  0  0  0  0  0  0  0  0
  -33.5500   13.1580   -5.5250 C   0  0  0  0  0  0  0  0  0  0  0  0
  -34.8270   11.6080   -4.1740 C   0  0  0  0  0  0  0  0  0  0  0  0
  -32.7070   14.4280   -5.5520 C   0  0  0  0  0  0  0  0  0  0  0  0
  -31.0030   16.2770   -5.9440 S   0  0  0  0  0  0  0  0  0  0  0  0
  -33.0280   15.6110   -4.6350 C   0  0  0  0  0  0  0  0  0  0  0  0
  -34.1540   15.6740   -3.6940 O   0  0  0  0  0  0  0  0  0  0  0  0
  -34.2790   16.8800   -2.8950 C   0  0  2  0  0  0  0  0  0  0  0  0
  -33.2030   17.9200   -2.9450 C   0  0  0  0  0  0  0  0  0  0  0  0
  -31.5750   18.8610   -4.2210 O   0  0  0  0  0  0  0  0  0  0  0  0
  -34.9860   16.6600   -1.6720 N   0  0  0  0  0  0  0  0  0  0  0  0
  -35.1100   17.6750   -0.6130 C   0  0  0  0  0  0  0  0  0  0  0  0
  -36.5020   16.2650    0.6370 O   0  0  0  0  0  0  0  0  0  0  0  0
  -35.6090   15.3560   -1.4140 C   0  0  0  0  0  0  0  0  0  0  0  0
   11.0240   -0.3690  -25.8340 C   0  0  0  0  0  0  0  0  0  0  0  0
    8.8100    1.8030  -25.1690 C   0  0  0  0  0  0  0  0  0  0  0  0
    8.5320    3.6810  -26.8500 C   0  0  0  0  0  0  0  0  0  0  0  0
    8.2920    4.8680  -27.6740 C   0  0  0  0  0  0  0  0  0  0  0  0
   10.0440    4.2880  -33.2820 C   0  0  0  0  0  0  0  0  0  0  0  0
   11.2100    2.4180  -32.7040 C   0  0  0  0  0  0  0  0  0  0  0  0
   15.0190   -2.5820  -26.0430 C   0  0  0  0  0  0  0  0  0  0  0  0
   14.5390   -3.8070  -26.8250 C   0  0  0  0  0  0  0  0  0  0  0  0
   13.1540   -3.9330  -26.6410 O   0  0  0  0  0  0  0  0  0  0  0  0
   12.4150   -3.3470  -27.6670 C   0  0  0  0  0  0  0  0  0  0  0  0
   12.4290   -3.8080  -28.7580 O   0  0  0  0  0  0  0  0  0  0  0  0
   11.6100   -2.0820  -27.3750 C   0  0  0  0  0  0  0  0  0  0  0  0
   10.7950   -1.5170  -28.3460 C   0  0  0  0  0  0  0  0  0  0  0  0
   10.0750   -0.3670  -28.0530 C   0  0  0  0  0  0  0  0  0  0  0  0
   10.2020    0.1920  -26.7920 C   0  0  0  0  0  0  0  0  0  0  0  0
   11.7300   -1.5140  -26.1290 C   0  0  0  0  0  0  0  0  0  0  0  0
    9.4440    1.4500  -26.4220 C   0  0  0  0  0  0  0  0  0  0  0  0
    8.1390    3.3030  -25.3190 S   0  0  0  0  0  0  0  0  0  0  0  0
    9.2770    2.5900  -27.4090 C   0  0  0  0  0  0  0  0  0  0  0  0
    9.7900    2.5980  -28.7810 O   0  0  0  0  0  0  0  0  0  0  0  0
    9.7760    3.8660  -29.4820 C   0  0  2  0  0  0  0  0  0  0  0  0
    8.7750    4.8840  -29.0310 C   0  0  0  0  0  0  0  0  0  0  0  0
    7.7130    5.8020  -27.2110 O   0  0  0  0  0  0  0  0  0  0  0  0
    9.9130    3.5850  -30.8820 N   0  0  0  0  0  0  0  0  0  0  0  0
    9.3520    4.4410  -31.9360 C   0  0  0  0  0  0  0  0  0  0  0  0
   10.3450    2.9760  -33.6210 O   0  0  0  0  0  0  0  0  0  0  0  0
   10.5670    2.3310  -31.3200 C   0  0  0  0  0  0  0  0  0  0  0  0
  1 16  1  0  0  0  0
  2 18  1  0  0  0  0
  2 17  2  0  0  0  0
  3 19  2  0  0  0  0
  3  4  1  0  0  0  0
  4 22  1  0  0  0  0
  5 26  1  0  0  0  0
  6 26  1  0  0  0  0
  7  8  1  0  0  0  0
  9  8  1  0  0  0  0
  9 10  1  0  0  0  0
 10 11  2  0  0  0  0
 12 10  1  0  0  0  0
 12 16  2  0  0  0  0
 13 12  1  0  0  0  0
 14 13  2  0  0  0  0
 14 15  1  0  0  0  0
 15  1  2  0  0  0  0
 17 15  1  0  0  0  0
 17 19  1  0  0  0  0
 18  3  1  0  0  0  0
 19 20  1  0  0  0  0
 20 21  1  0  0  0  0
 21 22  1  1  0  0  0
 21 24  1  0  0  0  0
 23  4  2  0  0  0  0
 24 27  1  0  0  0  0
 24 25  1  0  0  0  0
 25  5  1  0  0  0  0
 27  6  1  0  0  0  0
 30 45  1  0  0  0  0
 31 50  2  0  0  0  0
 31 30  1  0  0  0  0
 32 52  1  0  0  0  0
 33 54  1  0  0  0  0
 35 36  1  0  0  0  0
 35 34  1  0  0  0  0
 37 39  1  0  0  0  0
 37 36  1  0  0  0  0
 38 37  2  0  0  0  0
 39 43  2  0  0  0  0
 40 41  2  0  0  0  0
 40 39  1  0  0  0  0
 41 42  1  0  0  0  0
 42 44  1  0  0  0  0
 42 28  2  0  0  0  0
 43 28  1  0  0  0  0
 44 29  2  0  0  0  0
 45 29  1  0  0  0  0
 46 30  2  0  0  0  0
 46 44  1  0  0  0  0
 47 46  1  0  0  0  0
 48 51  1  6  0  0  0
 48 49  1  0  0  0  0
 48 47  1  0  0  0  0
 49 31  1  0  0  0  0
 52 51  1  0  0  0  0
 53 32  1  0  0  0  0
 53 33  1  0  0  0  0
 54 51  1  0  0  0  0
M  END
$$$$
