/Users/chinazoemeh/HopeMScP/data/ligands/BRD4-BD1_BRD4-BD1_84_7Q3F/BRD4-BD1_BRD4-BD1_84_7Q3F.pdb
 OpenBabel07142514423D

 35 39  0  0  0  0  0  0  0  0999 V2000
   16.0140    4.3080    7.0450 N   0  0  0  0  0  0  0  0  0  0  0  0
   12.7300    6.1500   11.8730 N   0  0  0  0  0  0  0  0  0  0  0  0
   14.8570    2.4400    8.7330 C   0  0  0  0  0  0  0  0  0  0  0  0
   14.2180    5.9300   10.0770 C   0  0  0  0  0  0  0  0  0  0  0  0
   14.0760    4.5430   10.1590 C   0  0  0  0  0  0  0  0  0  0  0  0
   13.6510    6.9000   11.0550 C   0  0  0  0  0  0  0  0  0  0  0  0
   13.1870    4.8730   12.4430 C   0  0  0  0  0  0  0  0  0  0  0  0
   11.4050    6.6720   12.0390 C   0  0  0  0  0  0  0  0  0  0  0  0
   14.2960    0.5460    6.4460 C   0  0  0  0  0  0  0  0  0  0  0  0
   12.2310    0.1190    5.6600 C   0  0  0  0  0  0  0  0  0  0  0  0
   18.7000    3.0580    5.6600 C   0  0  0  0  0  0  0  0  0  0  0  0
   18.6400    7.8010    5.8130 C   0  0  0  0  0  0  0  0  0  0  0  0
   20.1460    9.5590    5.4770 C   0  0  0  0  0  0  0  0  0  0  0  0
   21.2780    8.6740    5.6010 C   0  0  0  0  0  0  0  0  0  0  0  0
   17.1560    7.3630    5.9180 C   0  0  0  0  0  0  0  0  0  0  0  0
   16.0700    2.9930    6.8280 C   0  0  0  0  0  0  0  0  0  0  0  0
   15.3620    4.7160    8.1270 C   0  0  0  0  0  0  0  0  0  0  0  0
   14.7510    3.8350    9.0130 C   0  0  0  0  0  0  0  0  0  0  0  0
   15.5290    2.0780    7.6310 N   0  0  0  0  0  0  0  0  0  0  0  0
   15.1030    6.3230    8.6660 S   0  0  0  0  0  0  0  0  0  0  0  0
   13.3270    3.8760   11.3200 C   0  0  0  0  0  0  0  0  0  0  0  0
   10.4340    5.9260   12.9050 C   0  0  0  0  0  0  0  0  0  0  0  0
   11.1140    7.7460   11.5260 O   0  0  0  0  0  0  0  0  0  0  0  0
   15.5870    0.6720    7.3370 C   0  0  0  0  0  0  0  0  0  0  0  0
   14.2090    0.9990    5.2680 O   0  0  0  0  0  0  0  0  0  0  0  0
   13.0240    0.7650    4.7540 C   0  0  0  0  0  0  0  0  0  0  0  0
   13.0620   -0.0190    6.8000 C   0  0  0  0  0  0  0  0  0  0  0  0
   16.9950    2.5800    5.3470 S   0  0  0  0  0  0  0  0  0  0  0  0
   18.8820    4.5540    5.2680 C   0  0  0  0  0  0  0  0  0  0  0  0
   18.5080    4.9540    4.1940 O   0  0  0  0  0  0  0  0  0  0  0  0
   19.4910    5.4400    6.2090 N   0  0  0  0  0  0  0  0  0  0  0  0
   19.7150    6.8680    5.9430 C   0  0  0  0  0  0  0  0  0  0  0  0
   18.9070    9.0840    5.5920 N   0  0  0  0  0  0  0  0  0  0  0  0
   21.0440    7.3320    5.8380 C   0  0  0  0  0  0  0  0  0  0  0  0
   14.2650    1.4230    9.5560 O   0  0  0  0  0  0  0  0  0  0  0  0
  1 17  1  0  0  0  0
  2  8  1  0  0  0  0
  2  7  1  0  0  0  0
  3 18  1  0  0  0  0
  3 35  2  0  0  0  0
  4  5  2  0  0  0  0
  4  6  1  0  0  0  0
  5 21  1  0  0  0  0
  6  2  1  0  0  0  0
  8 22  1  0  0  0  0
  9 27  2  0  0  0  0
  9 24  1  0  0  0  0
 10 27  1  0  0  0  0
 12 15  1  0  0  0  0
 12 32  1  0  0  0  0
 13 33  1  0  0  0  0
 13 14  2  0  0  0  0
 14 34  1  0  0  0  0
 16  1  2  0  0  0  0
 16 19  1  0  0  0  0
 17 20  1  0  0  0  0
 17 18  2  0  0  0  0
 18  5  1  0  0  0  0
 19  3  1  0  0  0  0
 20  4  1  0  0  0  0
 21  7  1  0  0  0  0
 23  8  2  0  0  0  0
 24 19  1  0  0  0  0
 25  9  1  0  0  0  0
 26 25  1  0  0  0  0
 26 10  2  0  0  0  0
 28 11  1  0  0  0  0
 28 16  1  0  0  0  0
 29 11  1  0  0  0  0
 29 31  1  0  0  0  0
 30 29  2  0  0  0  0
 32 31  1  0  0  0  0
 33 12  2  0  0  0  0
 34 32  2  0  0  0  0
M  END
$$$$
