/Users/chinazoemeh/HopeMScP/data/ligands/BRD4-BD1_BRD4-BD1_41_8GQ0/BRD4-BD1_BRD4-BD1_41_8GQ0.pdb
 OpenBabel07142514433D

 12  8  0  0  0  0  0  0  0  0999 V2000
   -8.1420  -14.0140   88.8230 C   0  0  0  0  0  0  0  0  0  0  0  0
   -9.2590  -14.3330   89.2050 O   0  0  0  0  0  0  0  0  0  0  0  0
   -7.6680  -12.8790   88.9250 O   0  0  0  0  0  0  0  0  0  0  0  0
  -20.6870   -7.2930   69.8640 C   0  0  0  0  0  0  0  0  0  0  0  0
  -21.5350   -7.5050   70.7310 O   0  0  0  0  0  0  0  0  0  0  0  0
  -20.3950   -6.1770   69.4320 O   0  0  0  0  0  0  0  0  0  0  0  0
  -20.3540   -7.1010   73.4470 C   0  0  0  0  0  0  0  0  0  0  0  0
  -20.4750   -6.0400   72.8170 O   0  0  0  0  0  0  0  0  0  0  0  0
  -19.2850   -7.5050   73.9360 O   0  0  0  0  0  0  0  0  0  0  0  0
  -20.8450   17.8680   97.3010 C   0  0  0  0  0  0  0  0  0  0  0  0
  -21.4530   16.8100   97.1860 O   0  0  0  0  0  0  0  0  0  0  0  0
  -19.6640   18.0070   96.9980 O   0  0  0  0  0  0  0  0  0  0  0  0
  1  3  1  0  0  0  0
  1  2  2  0  0  0  0
  4  5  2  0  0  0  0
  6  4  1  0  0  0  0
  7  9  2  0  0  0  0
  8  7  1  0  0  0  0
 11 10  2  0  0  0  0
 12 10  1  0  0  0  0
M  END
$$$$
