/Users/chinazoemeh/HopeMScP/data/ligands/BRD4-BD1_BRD4-BD1_47_6Q3Z/BRD4-BD1_BRD4-BD1_47_6Q3Z.pdb
 OpenBabel07142514423D

 28 21  0  0  0  0  0  0  0  0999 V2000
   13.8540  -12.4010    4.9980 C   0  0  0  0  0  0  0  0  0  0  0  0
   14.0970  -13.3830    4.0240 O   0  0  0  0  0  0  0  0  0  0  0  0
   15.0560  -11.6160    5.2880 C   0  0  0  0  0  0  0  0  0  0  0  0
   16.1940  -12.4230    5.5160 O   0  0  0  0  0  0  0  0  0  0  0  0
   23.9200   -9.7740   27.1120 C   0  0  0  0  0  0  0  0  0  0  0  0
   23.9920   -8.8590   28.1960 O   0  0  0  0  0  0  0  0  0  0  0  0
   22.8110  -10.7710   27.2150 C   0  0  0  0  0  0  0  0  0  0  0  0
   23.2440  -12.0950   27.5270 O   0  0  0  0  0  0  0  0  0  0  0  0
   24.9760  -20.7150   18.4950 C   0  0  0  0  0  0  0  0  0  0  0  0
   25.8450  -21.6510   17.8830 O   0  0  0  0  0  0  0  0  0  0  0  0
   23.9660  -20.1340   17.5760 C   0  0  0  0  0  0  0  0  0  0  0  0
   24.5440  -19.4840   16.4510 O   0  0  0  0  0  0  0  0  0  0  0  0
   37.5990  -13.6850   11.1350 C   0  0  0  0  0  0  0  0  0  0  0  0
   37.4250  -12.2780   11.0290 O   0  0  0  0  0  0  0  0  0  0  0  0
   38.0490  -14.1650   12.4810 C   0  0  0  0  0  0  0  0  0  0  0  0
   38.3830  -13.1200   13.3990 O   0  0  0  0  0  0  0  0  0  0  0  0
    6.5600   10.9400   31.9170 C   0  0  0  0  0  0  0  0  0  0  0  0
    6.8750   11.1740   30.5650 O   0  0  0  0  0  0  0  0  0  0  0  0
    7.6720   10.3660   32.7270 C   0  0  0  0  0  0  0  0  0  0  0  0
    7.5970   10.6770   34.1200 O   0  0  0  0  0  0  0  0  0  0  0  0
   15.0480    5.0000   30.8920 C   0  0  0  0  0  0  0  0  0  0  0  0
   14.3630    3.8720   31.4420 O   0  0  0  0  0  0  0  0  0  0  0  0
   16.0910    5.5440   31.7960 C   0  0  0  0  0  0  0  0  0  0  0  0
   15.5650    6.0890   32.9860 O   0  0  0  0  0  0  0  0  0  0  0  0
   24.8720   13.5800   44.2260 C   0  0  0  0  0  0  0  0  0  0  0  0
   23.7130   12.8160   43.9850 O   0  0  0  0  0  0  0  0  0  0  0  0
   26.0910   12.7450   44.3150 C   0  0  0  0  0  0  0  0  0  0  0  0
   25.9490   11.6800   45.2190 O   0  0  0  0  0  0  0  0  0  0  0  0
  1  3  1  0  0  0  0
  2  1  1  0  0  0  0
  3  4  1  0  0  0  0
  5  7  1  0  0  0  0
  5  6  1  0  0  0  0
  7  8  1  0  0  0  0
 10  9  1  0  0  0  0
 11  9  1  0  0  0  0
 12 11  1  0  0  0  0
 13 15  1  0  0  0  0
 14 13  1  0  0  0  0
 15 16  1  0  0  0  0
 17 19  1  0  0  0  0
 18 17  1  0  0  0  0
 19 20  1  0  0  0  0
 21 22  1  0  0  0  0
 21 23  1  0  0  0  0
 23 24  1  0  0  0  0
 25 27  1  0  0  0  0
 26 25  1  0  0  0  0
 27 28  1  0  0  0  0
M  END
$$$$
