/Users/chinazoemeh/HopeMScP/data/ligands/BRD4-BD1_BRD4-BD1_16_6JI5/BRD4-BD1_BRD4-BD1_16_6JI5.pdb
 OpenBabel07142514423D

 40 45  0  0  1  0  0  0  0  0999 V2000
   13.9750   40.3000    1.3560 C   0  0  0  0  0  0  0  0  0  0  0  0
   13.3530   40.2100   -1.7550 C   0  0  0  0  0  0  0  0  0  0  0  0
   13.2390   38.9220   -1.6880 C   0  0  0  0  0  0  0  0  0  0  0  0
   13.4430   38.3170   -3.2370 C   0  0  0  0  0  0  0  0  0  0  0  0
   12.7960   39.1770   -4.0270 C   0  0  0  0  0  0  0  0  0  0  0  0
   12.8780   40.5590   -3.2440 C   0  0  0  0  0  0  0  0  0  0  0  0
    7.8610   40.1670    0.6330 C   0  0  2  0  0  0  0  0  0  0  0  0
    6.1310   38.9910    0.9690 C   0  0  0  0  0  0  0  0  0  0  0  0
    7.7330   40.3800   -1.8490 C   0  0  0  0  0  0  0  0  0  0  0  0
    8.1550   39.5490   -2.9010 C   0  0  0  0  0  0  0  0  0  0  0  0
    8.0850   42.3580   -3.1900 C   0  0  0  0  0  0  0  0  0  0  0  0
    7.6940   41.7790   -2.0020 C   0  0  0  0  0  0  0  0  0  0  0  0
    8.1320   37.9940   -2.7860 C   0  0  0  0  0  0  0  0  0  0  0  0
    5.0560   38.1900    1.6630 C   0  0  0  0  0  0  0  0  0  0  0  0
    9.1350   42.0180    1.7840 C   0  0  0  0  0  0  0  0  0  0  0  0
    9.1440   40.9690    0.8160 C   0  0  0  0  0  0  0  0  0  0  0  0
   10.2750   40.6270    0.0340 C   0  0  0  0  0  0  0  0  0  0  0  0
   11.4890   41.3450    0.1930 C   0  0  0  0  0  0  0  0  0  0  0  0
   11.4710   42.4350    1.1670 C   0  0  0  0  0  0  0  0  0  0  0  0
   10.3100   42.7650    1.9490 C   0  0  0  0  0  0  0  0  0  0  0  0
   12.7990   41.0710   -0.5580 N   0  0  0  0  0  0  0  0  0  0  0  0
   13.9050   41.3760    0.2530 C   0  0  1  0  0  0  0  0  0  0  0  0
   13.8250   42.8970    0.6170 C   0  0  1  0  0  0  0  0  0  0  0  0
   12.7190   43.2450    1.3820 N   0  0  0  0  0  0  0  0  0  0  0  0
   12.6150   44.6170    1.9360 C   0  0  0  0  0  0  0  0  0  0  0  0
   15.0610   43.3960    1.0800 O   0  0  0  0  0  0  0  0  0  0  0  0
    7.1410   39.6280    1.6050 N   0  0  0  0  0  0  0  0  0  0  0  0
    6.2050   39.1900   -0.3240 N   0  0  0  0  0  0  0  0  0  0  0  0
    7.2920   39.8940   -0.5320 N   0  0  0  0  0  0  0  0  0  0  0  0
    8.5030   40.1380   -4.1340 C   0  0  0  0  0  0  0  0  0  0  0  0
    8.4770   41.5370   -4.2630 C   0  0  0  0  0  0  0  0  0  0  0  0
    8.8600   42.2260   -5.6020 C   0  0  0  0  0  0  0  0  0  0  0  0
    5.1850   37.0190    1.8260 O   0  0  0  0  0  0  0  0  0  0  0  0
    3.9180   38.9300    2.1540 N   0  0  0  0  0  0  0  0  0  0  0  0
    3.7720   40.3390    2.0180 C   0  0  0  0  0  0  0  0  0  0  0  0
    2.3600   40.7700    1.6710 C   0  0  0  0  0  0  0  0  0  0  0  0
    1.3340   40.1090    2.3960 N   0  0  0  0  0  0  0  0  0  0  0  0
    1.4630   38.7190    2.3480 C   0  0  0  0  0  0  0  0  0  0  0  0
    2.8420   38.3410    2.8800 C   0  0  0  0  0  0  0  0  0  0  0  0
    0.1350   40.5680    2.0910 C   0  0  0  0  0  0  0  0  0  0  0  0
  2  3  1  0  0  0  0
  2 21  1  0  0  0  0
  4  3  1  0  0  0  0
  5  6  1  0  0  0  0
  5  4  1  0  0  0  0
  6  2  1  0  0  0  0
  7 16  1  6  0  0  0
  7 27  1  0  0  0  0
  8 27  2  0  0  0  0
  8 14  1  0  0  0  0
  9 29  1  0  0  0  0
 10 13  1  0  0  0  0
 10  9  2  0  0  0  0
 11 12  2  0  0  0  0
 12  9  1  0  0  0  0
 14 33  2  0  0  0  0
 14 34  1  0  0  0  0
 15 20  1  0  0  0  0
 16 15  2  0  0  0  0
 17 18  2  0  0  0  0
 17 16  1  0  0  0  0
 18 19  1  0  0  0  0
 19 24  1  0  0  0  0
 19 20  2  0  0  0  0
 21 18  1  0  0  0  0
 21 22  1  0  0  0  0
 22 23  1  0  0  0  0
 22  1  1  1  0  0  0
 23 26  1  1  0  0  0
 23 24  1  0  0  0  0
 24 25  1  0  0  0  0
 28  8  1  0  0  0  0
 29 28  1  0  0  0  0
 29  7  1  0  0  0  0
 30 10  1  0  0  0  0
 31 30  2  0  0  0  0
 31 11  1  0  0  0  0
 32 31  1  0  0  0  0
 34 39  1  0  0  0  0
 35 34  1  0  0  0  0
 36 35  1  0  0  0  0
 36 37  1  0  0  0  0
 38 37  1  0  0  0  0
 38 39  1  0  0  0  0
 40 37  1  0  0  0  0
M  END
$$$$
