/Users/chinazoemeh/HopeMScP/data/ligands/BRD4-BD1_BRD4-BD1_40_6FNX/BRD4-BD1_BRD4-BD1_40_6FNX.pdb
 OpenBabel07142514423D

 16 13  0  0  0  0  0  0  0  0999 V2000
    2.6350    2.8390    5.5630 C   0  0  0  0  0  0  0  0  0  0  0  0
    1.8550    2.5030    6.8750 O   0  0  0  0  0  0  0  0  0  0  0  0
    2.6260    1.7980    4.4150 C   0  0  0  0  0  0  0  0  0  0  0  0
    2.4560    0.4350    4.7710 O   0  0  0  0  0  0  0  0  0  0  0  0
   -4.7550   -5.8220  -19.0700 C   0  0  0  0  0  0  0  0  0  0  0  0
   -5.7180   -4.7520  -19.2600 O   0  0  0  0  0  0  0  0  0  0  0  0
   -3.3600   -5.2340  -18.7110 C   0  0  0  0  0  0  0  0  0  0  0  0
   -2.9140   -4.2080  -19.6360 O   0  0  0  0  0  0  0  0  0  0  0  0
  -15.1510  -20.5200   -7.2760 C   0  0  0  0  0  0  0  0  0  0  0  0
  -16.6530  -20.5150   -6.9030 O   0  0  0  0  0  0  0  0  0  0  0  0
  -14.9360  -20.1120   -8.7530 C   0  0  0  0  0  0  0  0  0  0  0  0
  -13.8750  -19.6630   -9.6210 O   0  0  0  0  0  0  0  0  0  0  0  0
   -4.1730   -3.4810  -20.3360 C   0  0  0  0  0  0  0  0  0  0  0  0
   -4.0880   -2.8980  -19.0630 O   0  0  0  0  0  0  0  0  0  0  0  0
   -3.8100   -4.8810  -20.5390 C   0  0  0  0  0  0  0  0  0  0  0  0
   -3.7590   -5.5100  -19.2420 O   0  0  0  0  0  0  0  0  0  0  0  0
  1  2  1  0  0  0  0
  3  4  1  0  0  0  0
  3  1  1  0  0  0  0
  6  5  1  0  0  0  0
  8  7  1  0  0  0  0
  9 10  1  0  0  0  0
 11  9  1  0  0  0  0
 12 11  1  0  0  0  0
 13 14  1  0  0  0  0
 15 13  1  0  0  0  0
 15  8  1  0  0  0  0
 16  5  1  0  0  0  0
 16  7  1  0  0  0  0
M  END
$$$$
