/Users/chinazoemeh/HopeMScP/data/ligands/BRD4-BD1_BRD4-BD1_35_7JKW/BRD4-BD1_BRD4-BD1_35_7JKW.pdb
 OpenBabel07142514423D

 42 47  0  0  0  0  0  0  0  0999 V2000
   14.5100   15.2980    5.8020 C   0  0  0  0  0  0  0  0  0  0  0  0
   13.3160   14.6020    5.5990 C   0  0  0  0  0  0  0  0  0  0  0  0
   12.9150   14.2580    4.3170 C   0  0  0  0  0  0  0  0  0  0  0  0
   13.7240   14.5390    3.2130 C   0  0  0  0  0  0  0  0  0  0  0  0
   14.9290   15.1950    3.4200 C   0  0  0  0  0  0  0  0  0  0  0  0
   15.3300   15.6090    4.6980 C   0  0  0  0  0  0  0  0  0  0  0  0
   16.5790   16.3100    4.5520 C   0  0  0  0  0  0  0  0  0  0  0  0
   16.8670   16.3010    3.2160 C   0  0  0  0  0  0  0  0  0  0  0  0
   15.8580   15.5310    1.0520 C   0  0  0  0  0  0  0  0  0  0  0  0
   14.9700   16.7230    0.6800 C   0  0  0  0  0  0  0  0  0  0  0  0
   15.4710   17.9600    0.2920 C   0  0  0  0  0  0  0  0  0  0  0  0
   14.5800   19.0010    0.0570 C   0  0  0  0  0  0  0  0  0  0  0  0
   13.2330   18.8190    0.3130 C   0  0  0  0  0  0  0  0  0  0  0  0
   12.8180   17.5970    0.7220 C   0  0  0  0  0  0  0  0  0  0  0  0
   15.3290   14.1680    0.5790 C   0  0  0  0  0  0  0  0  0  0  0  0
   14.1640   12.9270   -0.9360 C   0  0  0  0  0  0  0  0  0  0  0  0
   14.5350   11.7320   -0.3520 C   0  0  0  0  0  0  0  0  0  0  0  0
   15.3630   11.7820    0.7410 C   0  0  0  0  0  0  0  0  0  0  0  0
   15.7470   13.0160    1.2070 C   0  0  0  0  0  0  0  0  0  0  0  0
   14.5460   14.1310   -0.4970 N   0  0  0  0  0  0  0  0  0  0  0  0
   13.6690   16.5760    0.9090 N   0  0  0  0  0  0  0  0  0  0  0  0
   15.9240   15.6200    2.5190 N   0  0  0  0  0  0  0  0  0  0  0  0
   17.2690   15.6920    0.4140 C   0  0  0  0  0  0  0  0  0  0  0  0
   11.5760   13.6650    4.0820 C   0  0  0  0  0  0  0  0  0  0  0  0
   10.8230   14.1210    2.9970 C   0  0  0  0  0  0  0  0  0  0  0  0
    9.5500   13.6280    2.7580 C   0  0  0  0  0  0  0  0  0  0  0  0
    8.9820   12.5890    3.5700 C   0  0  0  0  0  0  0  0  0  0  0  0
   11.0540   12.6730    4.8640 C   0  0  0  0  0  0  0  0  0  0  0  0
   13.8160   14.3490    9.1000 C   0  0  0  0  0  0  0  0  0  0  0  0
   15.1290   13.7310    9.4650 C   0  0  0  0  0  0  0  0  0  0  0  0
   14.9430   15.7470    7.0460 N   0  0  0  0  0  0  0  0  0  0  0  0
   14.0290   15.9530    8.3690 S   0  0  0  0  0  0  0  0  0  0  0  0
   12.7380   16.4190    7.9780 O   0  0  0  0  0  0  0  0  0  0  0  0
   14.7930   16.7520    9.2890 O   0  0  0  0  0  0  0  0  0  0  0  0
    9.7920   12.1690    4.6020 N   0  0  0  0  0  0  0  0  0  0  0  0
    9.2890   11.1150    5.4730 C   0  0  0  0  0  0  0  0  0  0  0  0
    9.3620   15.0420    0.6920 C   0  0  0  0  0  0  0  0  0  0  0  0
   10.4460   14.5260   -0.3110 C   0  0  0  0  0  0  0  0  0  0  0  0
    8.5270   15.4570   -0.5620 C   0  0  0  0  0  0  0  0  0  0  0  0
    7.8650   12.0910    3.3730 O   0  0  0  0  0  0  0  0  0  0  0  0
    8.8310   14.0980    1.6770 N   0  0  0  0  0  0  0  0  0  0  0  0
    9.7080   15.2070   -1.4000 N   0  0  0  0  0  0  0  0  0  0  0  0
  1 31  1  0  0  0  0
  2  1  1  0  0  0  0
  3  2  2  0  0  0  0
  4  5  2  0  0  0  0
  4  3  1  0  0  0  0
  5  6  1  0  0  0  0
  6  1  2  0  0  0  0
  7  6  1  0  0  0  0
  8  7  2  0  0  0  0
  9 22  1  0  0  0  0
 10 21  1  0  0  0  0
 10  9  1  0  0  0  0
 11 10  2  0  0  0  0
 12 11  1  0  0  0  0
 12 13  2  0  0  0  0
 13 14  1  0  0  0  0
 14 21  2  0  0  0  0
 15  9  1  0  0  0  0
 15 19  1  0  0  0  0
 16 20  1  0  0  0  0
 16 17  2  0  0  0  0
 17 18  1  0  0  0  0
 18 19  2  0  0  0  0
 20 15  2  0  0  0  0
 22  8  1  0  0  0  0
 22  5  1  0  0  0  0
 23  9  1  0  0  0  0
 24  3  1  0  0  0  0
 24 28  2  0  0  0  0
 25 24  1  0  0  0  0
 26 25  1  0  0  0  0
 26 27  1  0  0  0  0
 27 35  1  0  0  0  0
 29 30  1  0  0  0  0
 31 32  1  0  0  0  0
 32 29  1  0  0  0  0
 32 34  2  0  0  0  0
 33 32  2  0  0  0  0
 35 28  1  0  0  0  0
 35 36  1  0  0  0  0
 37 41  1  0  0  0  0
 38 37  1  0  0  0  0
 39 37  1  0  0  0  0
 40 27  2  0  0  0  0
 41 26  2  0  0  0  0
 42 39  1  0  0  0  0
 42 38  1  0  0  0  0
M  END
$$$$
