/Users/chinazoemeh/HopeMScP/data/ligands/BRD4-BD1_BRD4-BD1_85_5YOV/BRD4-BD1_BRD4-BD1_85_5YOV.pdb
 OpenBabel07142514433D

 29 32  0  0  1  0  0  0  0  0999 V2000
  -19.9710   -8.0940   79.8090 C   0  0  0  0  0  0  0  0  0  0  0  0
  -26.0670   -8.2140   79.3690 C   0  0  0  0  0  0  0  0  0  0  0  0
  -26.0200   -7.9540   76.9580 C   0  0  0  0  0  0  0  0  0  0  0  0
  -24.9200   -8.1470   74.5970 C   0  0  0  0  0  0  0  0  0  0  0  0
  -24.7980   -6.6570   74.5140 C   0  0  0  0  0  0  0  0  0  0  0  0
  -25.2980   -5.8300   75.6460 C   0  0  0  0  0  0  0  0  0  0  0  0
  -22.0370   -7.8750   76.2510 C   0  0  0  0  0  0  0  0  0  0  0  0
  -20.0270   -8.0720   75.1620 C   0  0  0  0  0  0  0  0  0  0  0  0
  -25.5920  -10.3030   75.9010 C   0  0  0  0  0  0  0  0  0  0  0  0
  -24.9310   -6.4100   80.6520 C   0  0  0  0  0  0  0  0  0  0  0  0
  -24.8930   -7.3770   79.5300 C   0  0  0  0  0  0  0  0  0  0  0  0
  -23.7350   -7.6900   78.7050 C   0  0  0  0  0  0  0  0  0  0  0  0
  -22.5090   -6.8470   78.9790 C   0  0  0  0  0  0  0  0  0  0  0  0
  -22.5460   -5.8790   80.0280 C   0  0  0  0  0  0  0  0  0  0  0  0
  -23.7580   -5.6180   80.8950 C   0  0  0  0  0  0  0  0  0  0  0  0
  -21.2440   -7.0850   78.2000 N   0  0  0  0  0  0  0  0  0  0  0  0
  -20.2430   -6.9270   78.7640 C   0  0  1  0  0  0  0  0  0  0  0  0
  -20.1950   -5.3850   79.6950 C   0  0  0  0  0  0  0  0  0  0  0  0
  -21.3190   -5.0560   80.2210 N   0  0  0  0  0  0  0  0  0  0  0  0
  -19.2220   -4.8060   79.8000 O   0  0  0  0  0  0  0  0  0  0  0  0
  -21.4760   -3.9210   80.9940 C   0  0  0  0  0  0  0  0  0  0  0  0
  -21.3330   -8.2290   77.2610 C   0  0  0  0  0  0  0  0  0  0  0  0
  -26.5870   -8.5350   78.1110 N   0  0  0  0  0  0  0  0  0  0  0  0
  -26.4020   -8.6670   80.4360 O   0  0  0  0  0  0  0  0  0  0  0  0
  -25.5000   -8.8040   75.8310 C   0  0  0  0  0  0  0  0  0  0  0  0
  -25.8650   -6.4790   76.8320 C   0  0  0  0  0  0  0  0  0  0  0  0
  -20.8930   -7.0990   75.3940 C   0  0  0  0  0  0  0  0  0  0  0  0
  -19.9670   -8.6980   76.5610 C   0  0  0  0  0  0  0  0  0  0  0  0
  -24.2300   -6.0020   73.2830 C   0  0  0  0  0  0  0  0  0  0  0  0
  2 11  1  0  0  0  0
  2 24  2  0  0  0  0
  3 23  1  0  0  0  0
  4 25  1  0  0  0  0
  5  4  2  0  0  0  0
  5  6  1  0  0  0  0
  6 26  2  0  0  0  0
  7 22  1  0  0  0  0
  8 27  1  0  0  0  0
  8 28  1  0  0  0  0
 10 15  1  0  0  0  0
 11 10  2  0  0  0  0
 12 13  2  0  0  0  0
 12 11  1  0  0  0  0
 13 14  1  0  0  0  0
 14 19  1  0  0  0  0
 14 15  2  0  0  0  0
 16 17  1  0  0  0  0
 16 13  1  0  0  0  0
 17 18  1  0  0  0  0
 17  1  1  1  0  0  0
 18 20  2  0  0  0  0
 18 19  1  0  0  0  0
 19 21  1  0  0  0  0
 22 16  1  0  0  0  0
 23  2  1  0  0  0  0
 25  9  1  0  0  0  0
 25  3  2  0  0  0  0
 26  3  1  0  0  0  0
 27  7  1  0  0  0  0
 28 22  1  0  0  0  0
 29  5  1  0  0  0  0
M  END
$$$$
