/Users/chinazoemeh/HopeMScP/data/ligands/BRD4-BD1_BRD4-BD1_5_7EHY/BRD4-BD1_BRD4-BD1_5_7EHY.pdb
 OpenBabel07142514423D

 26 29  0  0  0  0  0  0  0  0999 V2000
   28.4610   30.7240   41.9080 C   0  0  0  0  0  0  0  0  0  0  0  0
   32.4240   30.2050   43.0710 C   0  0  0  0  0  0  0  0  0  0  0  0
   31.0800   30.9280   43.2210 C   0  0  0  0  0  0  0  0  0  0  0  0
   34.7340   30.8970   42.9140 C   0  0  0  0  0  0  0  0  0  0  0  0
   25.1710   30.5820   40.6560 C   0  0  0  0  0  0  0  0  0  0  0  0
   23.7900   30.0250   40.6730 C   0  0  0  0  0  0  0  0  0  0  0  0
   22.5970   30.5730   39.9850 C   0  0  0  0  0  0  0  0  0  0  0  0
   21.5990   29.5340   40.4050 C   0  0  0  0  0  0  0  0  0  0  0  0
   27.1910   30.7700   41.3340 C   0  0  0  0  0  0  0  0  0  0  0  0
   22.2780   28.5600   41.2950 C   0  0  0  0  0  0  0  0  0  0  0  0
   21.6550   27.3640   41.9560 C   0  0  0  0  0  0  0  0  0  0  0  0
   20.1380   29.4650   40.1500 C   0  0  0  0  0  0  0  0  0  0  0  0
   19.4730   30.8090   40.1470 C   0  0  0  0  0  0  0  0  0  0  0  0
   22.5190   31.8060   39.1020 C   0  0  0  0  0  0  0  0  0  0  0  0
   26.8920   31.7150   40.2320 C   0  0  0  0  0  0  0  0  0  0  0  0
   27.9140   32.5370   39.8110 C   0  0  0  0  0  0  0  0  0  0  0  0
   29.1640   32.4690   40.4130 C   0  0  0  0  0  0  0  0  0  0  0  0
   29.4520   31.5810   41.4420 C   0  0  0  0  0  0  0  0  0  0  0  0
   31.7670   32.3020   41.1770 C   0  0  0  0  0  0  0  0  0  0  0  0
   33.0440   32.3080   42.0040 C   0  0  0  0  0  0  0  0  0  0  0  0
   33.4280   30.9120   42.2450 N   0  0  0  0  0  0  0  0  0  0  0  0
   25.6090   31.5590   39.8560 N   0  0  0  0  0  0  0  0  0  0  0  0
   26.0490   30.0950   41.5590 N   0  0  0  0  0  0  0  0  0  0  0  0
   23.5730   28.9080   41.3810 N   0  0  0  0  0  0  0  0  0  0  0  0
   30.7550   31.5910   41.9570 N   0  0  0  0  0  0  0  0  0  0  0  0
   19.4990   28.4390   40.0690 O   0  0  0  0  0  0  0  0  0  0  0  0
  2  3  1  0  0  0  0
  5  6  1  0  0  0  0
  5 23  1  0  0  0  0
  6 24  1  0  0  0  0
  7  8  1  0  0  0  0
  7  6  2  0  0  0  0
  8 10  2  0  0  0  0
  9 23  1  0  0  0  0
  9  1  2  0  0  0  0
 10 24  1  0  0  0  0
 10 11  1  0  0  0  0
 12  8  1  0  0  0  0
 13 12  1  0  0  0  0
 14  7  1  0  0  0  0
 15  9  1  0  0  0  0
 16 15  2  0  0  0  0
 16 17  1  0  0  0  0
 17 18  2  0  0  0  0
 18  1  1  0  0  0  0
 18 25  1  0  0  0  0
 19 25  1  0  0  0  0
 19 20  1  0  0  0  0
 20 21  1  0  0  0  0
 21  4  1  0  0  0  0
 21  2  1  0  0  0  0
 22 15  1  0  0  0  0
 22  5  2  0  0  0  0
 25  3  1  0  0  0  0
 26 12  2  0  0  0  0
M  END
$$$$
