/Users/chinazoemeh/HopeMScP/data/ligands/BRD4-BD1_BRD4-BD1_60_6VUB/BRD4-BD1_BRD4-BD1_60_6VUB.pdb
 OpenBabel07142514423D

 13 14  0  0  1  0  0  0  0  0999 V2000
   12.7910    3.1150   -1.5150 C   0  0  0  0  0  0  0  0  0  0  0  0
   11.8020    6.1660    2.4610 C   0  0  0  0  0  0  0  0  0  0  0  0
   11.8830    5.5400   -1.0640 C   0  0  0  0  0  0  0  0  0  0  0  0
   13.9730    4.8450   -0.1650 C   0  0  0  0  0  0  0  0  0  0  0  0
   13.7320    6.2740    0.2750 C   0  0  0  0  0  0  0  0  0  0  0  0
   12.2450    6.5870    0.0020 C   0  0  2  0  0  0  0  0  0  0  0  0
   11.3510    6.4290    1.1820 C   0  0  0  0  0  0  0  0  0  0  0  0
    9.9550    6.5290    0.9780 C   0  0  0  0  0  0  0  0  0  0  0  0
    9.0800    6.3770    2.0510 C   0  0  0  0  0  0  0  0  0  0  0  0
    9.5480    6.1160    3.3300 C   0  0  0  0  0  0  0  0  0  0  0  0
   10.9280    6.0180    3.5370 C   0  0  0  0  0  0  0  0  0  0  0  0
   12.8680    4.4500   -0.9290 N   0  0  0  0  0  0  0  0  0  0  0  0
   14.9220    4.1590    0.0620 O   0  0  0  0  0  0  0  0  0  0  0  0
  1 12  1  0  0  0  0
  2 11  1  0  0  0  0
  3 12  1  0  0  0  0
  3  6  1  0  0  0  0
  4 13  2  0  0  0  0
  4  5  1  0  0  0  0
  6  5  1  0  0  0  0
  6  7  1  1  0  0  0
  7  2  2  0  0  0  0
  8  7  1  0  0  0  0
  8  9  2  0  0  0  0
  9 10  1  0  0  0  0
 10 11  2  0  0  0  0
 12  4  1  0  0  0  0
M  END
$$$$
