/Users/chinazoemeh/HopeMScP/data/ligands/BRD4-BD1_BRD4-BD1_90_6KEJ/BRD4-BD1_BRD4-BD1_90_6KEJ.pdb
 OpenBabel07142514423D

  6  4  0  0  0  0  0  0  0  0999 V2000
  -11.2110  -17.8040   18.4640 C   0  0  0  0  0  0  0  0  0  0  0  0
  -12.0290  -18.3860   17.7530 O   0  0  0  0  0  0  0  0  0  0  0  0
  -10.4380  -16.9360   18.0540 O   0  0  0  0  0  0  0  0  0  0  0  0
   -8.1970   -9.6280   30.3140 C   0  0  0  0  0  0  0  0  0  0  0  0
   -9.3540   -9.4410   29.9160 O   0  0  0  0  0  0  0  0  0  0  0  0
   -7.6340  -10.7320   30.3800 O   0  0  0  0  0  0  0  0  0  0  0  0
  2  1  1  0  0  0  0
  3  1  2  0  0  0  0
  4  6  2  0  0  0  0
  5  4  1  0  0  0  0
M  END
$$$$
