/Users/chinazoemeh/HopeMScP/data/ligands/BRD4-BD1_BRD4-BD1_56_6ZCI/BRD4-BD1_BRD4-BD1_56_6ZCI.pdb
 OpenBabel07142514423D

 29 33  0  0  1  0  0  0  0  0999 V2000
   -6.2170   -9.3180    0.2440 C   0  0  0  0  0  0  0  0  0  0  0  0
  -11.3780   -7.0460   -0.4600 C   0  0  0  0  0  0  0  0  0  0  0  0
  -12.7450   -5.2090   -1.0790 C   0  0  0  0  0  0  0  0  0  0  0  0
  -11.5890   -4.6030   -1.7710 C   0  0  0  0  0  0  0  0  0  0  0  0
  -10.4150   -5.2510   -1.7320 C   0  0  0  0  0  0  0  0  0  0  0  0
   -8.4050   -6.9740    1.4390 C   0  0  0  0  0  0  0  0  0  0  0  0
   -7.4430   -5.9590    1.3760 C   0  0  0  0  0  0  0  0  0  0  0  0
   -8.1020   -5.1760    3.5620 C   0  0  0  0  0  0  0  0  0  0  0  0
   -9.0580   -6.1930    3.6440 C   0  0  0  0  0  0  0  0  0  0  0  0
   -7.2830   -5.0680    2.4380 C   0  0  0  0  0  0  0  0  0  0  0  0
   -9.2140   -7.0850    2.5790 C   0  0  0  0  0  0  0  0  0  0  0  0
  -13.7310   -7.0310    0.2170 C   0  0  0  0  0  0  0  0  0  0  0  0
  -11.7100   -3.3140   -2.5500 C   0  0  0  0  0  0  0  0  0  0  0  0
   -6.0050   -9.9040    1.6080 C   0  0  0  0  0  0  0  0  0  0  0  0
   -5.3170   -8.8140   -3.1750 C   0  0  0  0  0  0  0  0  0  0  0  0
   -4.8300   -7.4280   -3.6390 C   0  0  0  0  0  0  0  0  0  0  0  0
   -3.8040   -8.4980   -3.2230 C   0  0  0  0  0  0  0  0  0  0  0  0
   -5.4590   -9.4680   -0.7690 N   0  0  0  0  0  0  0  0  0  0  0  0
   -5.9600   -8.8390   -1.8680 N   0  0  0  0  0  0  0  0  0  0  0  0
   -7.3310   -8.5080   -0.2380 C   0  0  0  0  0  0  0  0  0  0  0  0
   -7.0830   -8.2750   -1.5140 C   0  0  0  0  0  0  0  0  0  0  0  0
   -8.1440   -7.3980   -2.0190 C   0  0  0  0  0  0  0  0  0  0  0  0
   -9.0420   -7.2050   -0.9950 N   0  0  0  0  0  0  0  0  0  0  0  0
   -8.6150   -7.9090    0.2400 C   0  0  2  0  0  0  0  0  0  0  0  0
   -8.2120   -7.0430   -3.1920 O   0  0  0  0  0  0  0  0  0  0  0  0
  -10.2530   -6.5420   -1.0220 C   0  0  0  0  0  0  0  0  0  0  0  0
  -12.5880   -6.4120   -0.4720 N   0  0  0  0  0  0  0  0  0  0  0  0
   -7.8780   -4.0660    4.8920 Cl  0  0  0  0  0  0  0  0  0  0  0  0
  -13.8130   -4.6010   -1.0690 O   0  0  0  0  0  0  0  0  0  0  0  0
  1 14  1  0  0  0  0
  3 29  2  0  0  0  0
  3 27  1  0  0  0  0
  4  5  2  0  0  0  0
  4  3  1  0  0  0  0
  5 26  1  0  0  0  0
  6 11  1  0  0  0  0
  7  6  2  0  0  0  0
  7 10  1  0  0  0  0
  8  9  1  0  0  0  0
  8 28  1  0  0  0  0
 10  8  2  0  0  0  0
 11  9  2  0  0  0  0
 13  4  1  0  0  0  0
 15 19  1  0  0  0  0
 16 17  1  0  0  0  0
 16 15  1  0  0  0  0
 17 15  1  0  0  0  0
 18  1  2  0  0  0  0
 19 21  1  0  0  0  0
 19 18  1  0  0  0  0
 20 24  1  0  0  0  0
 20  1  1  0  0  0  0
 21 20  2  0  0  0  0
 22 21  1  0  0  0  0
 22 23  1  0  0  0  0
 23 24  1  0  0  0  0
 24  6  1  1  0  0  0
 25 22  2  0  0  0  0
 26 23  1  0  0  0  0
 26  2  2  0  0  0  0
 27  2  1  0  0  0  0
 27 12  1  0  0  0  0
M  END
$$$$
