/Users/chinazoemeh/HopeMScP/data/ligands/BRD4-BD1_BRD4-BD1_30_4WIV/BRD4-BD1_BRD4-BD1_30_4WIV.pdb
 OpenBabel07142514423D

  8  6  0  0  0  0  0  0  0  0999 V2000
    5.6500   -3.7980  -37.8720 C   0  0  0  0  0  0  0  0  0  0  0  0
    4.9190   -4.8420  -38.5310 O   0  0  0  0  0  0  0  0  0  0  0  0
    5.1780   -3.6950  -36.4230 C   0  0  0  0  0  0  0  0  0  0  0  0
    5.6060   -4.8270  -35.6740 O   0  0  0  0  0  0  0  0  0  0  0  0
   11.6240   -1.3020  -23.3530 C   0  0  0  0  0  0  0  0  0  0  0  0
   12.2360   -0.4230  -22.4040 O   0  0  0  0  0  0  0  0  0  0  0  0
   11.5120   -0.5800  -24.6880 C   0  0  0  0  0  0  0  0  0  0  0  0
   12.4050   -1.1830  -25.6300 O   0  0  0  0  0  0  0  0  0  0  0  0
  1  3  1  0  0  0  0
  2  1  1  0  0  0  0
  3  4  1  0  0  0  0
  5  6  1  0  0  0  0
  7  5  1  0  0  0  0
  8  7  1  0  0  0  0
M  END
$$$$
