/Users/chinazoemeh/HopeMScP/data/ligands/BRD4-BD1_BRD4-BD1_45_7L9M/BRD4-BD1_BRD4-BD1_45_7L9M.pdb
 OpenBabel07142514433D

 16 12  0  0  0  0  0  0  0  0999 V2000
  -16.6820   -1.7160  -18.4280 C   0  0  0  0  0  0  0  0  0  0  0  0
  -16.5610   -2.9410  -19.1640 O   0  0  0  0  0  0  0  0  0  0  0  0
  -15.4010   -0.9310  -18.6150 C   0  0  0  0  0  0  0  0  0  0  0  0
  -14.3010   -1.6410  -18.0230 O   0  0  0  0  0  0  0  0  0  0  0  0
  -18.5390    6.5900    4.5480 C   0  0  0  0  0  0  0  0  0  0  0  0
  -18.4980    5.2260    4.9650 O   0  0  0  0  0  0  0  0  0  0  0  0
  -19.9790    7.0340    4.3840 C   0  0  0  0  0  0  0  0  0  0  0  0
  -20.0790    8.4600    4.2570 O   0  0  0  0  0  0  0  0  0  0  0  0
  -13.9460  -13.4560  -13.9070 C   0  0  0  0  0  0  0  0  0  0  0  0
  -12.9910  -13.7220  -14.9570 O   0  0  0  0  0  0  0  0  0  0  0  0
  -13.3360  -12.7480  -12.6750 C   0  0  0  0  0  0  0  0  0  0  0  0
  -12.1630  -13.4740  -12.2000 O   0  0  0  0  0  0  0  0  0  0  0  0
   -4.1570    9.0720   21.1940 C   0  0  0  0  0  0  0  0  0  0  0  0
   -5.2420    8.2650   20.7020 O   0  0  0  0  0  0  0  0  0  0  0  0
   -2.8440    8.2880   21.1200 C   0  0  0  0  0  0  0  0  0  0  0  0
   -3.0020    7.0570   21.8530 O   0  0  0  0  0  0  0  0  0  0  0  0
  2  1  1  0  0  0  0
  3  1  1  0  0  0  0
  3  4  1  0  0  0  0
  5  6  1  0  0  0  0
  7  5  1  0  0  0  0
  8  7  1  0  0  0  0
  9 11  1  0  0  0  0
 10  9  1  0  0  0  0
 11 12  1  0  0  0  0
 14 13  1  0  0  0  0
 15 13  1  0  0  0  0
 15 16  1  0  0  0  0
M  END
$$$$
