/Users/chinazoemeh/HopeMScP/data/ligands/BRD4-BD1_BRD4-BD1_69_6V1K/BRD4-BD1_BRD4-BD1_69_6V1K.pdb
 OpenBabel07142514433D

 20 15  0  0  0  0  0  0  0  0999 V2000
   60.1820   44.0970    7.1620 C   0  0  0  0  0  0  0  0  0  0  0  0
   59.0270   43.4350    7.6980 O   0  0  0  0  0  0  0  0  0  0  0  0
   61.0700   43.0820    6.4570 C   0  0  0  0  0  0  0  0  0  0  0  0
   61.6130   42.1910    7.4360 O   0  0  0  0  0  0  0  0  0  0  0  0
   44.0780   57.5860   19.2590 C   0  0  0  0  0  0  0  0  0  0  0  0
   44.5610   57.4130   20.5990 O   0  0  0  0  0  0  0  0  0  0  0  0
   42.5570   57.5060   19.2190 C   0  0  0  0  0  0  0  0  0  0  0  0
   41.9820   58.3350   20.2330 O   0  0  0  0  0  0  0  0  0  0  0  0
   56.9470   41.8110   16.4640 C   0  0  0  0  0  0  0  0  0  0  0  0
   57.2080   42.6160   17.6210 O   0  0  0  0  0  0  0  0  0  0  0  0
   55.4490   41.7800   16.1810 C   0  0  0  0  0  0  0  0  0  0  0  0
   55.1710   40.7990   15.1720 O   0  0  0  0  0  0  0  0  0  0  0  0
   54.9470   51.4460   16.5790 C   0  0  0  0  0  0  0  0  0  0  0  0
   54.9750   52.4420   15.5550 O   0  0  0  0  0  0  0  0  0  0  0  0
   55.0540   52.1400   17.9340 C   0  0  0  0  0  0  0  0  0  0  0  0
   55.3970   51.1750   18.9300 O   0  0  0  0  0  0  0  0  0  0  0  0
   46.0840   62.0610   28.8380 C   0  0  0  0  0  0  0  0  0  0  0  0
   46.8710   61.1630   29.6290 O   0  0  0  0  0  0  0  0  0  0  0  0
   46.3660   61.8350   27.3550 C   0  0  0  0  0  0  0  0  0  0  0  0
   47.6900   62.2860   27.0390 O   0  0  0  0  0  0  0  0  0  0  0  0
  1  2  1  0  0  0  0
  3  1  1  0  0  0  0
  3  4  1  0  0  0  0
  5  6  1  0  0  0  0
  7  5  1  0  0  0  0
  7  8  1  0  0  0  0
  9 10  1  0  0  0  0
 11  9  1  0  0  0  0
 12 11  1  0  0  0  0
 13 15  1  0  0  0  0
 14 13  1  0  0  0  0
 15 16  1  0  0  0  0
 17 18  1  0  0  0  0
 19 17  1  0  0  0  0
 20 19  1  0  0  0  0
M  END
$$$$
