/Users/chinazoemeh/HopeMScP/data/ligands/BRD4-BD1_BRD4-BD1_15_8EAD/BRD4-BD1_BRD4-BD1_15_8EAD.pdb
 OpenBabel07142514433D

 14 12  0  0  0  0  0  0  0  0999 V2000
   18.7700    5.1070  -10.2710 C   0  0  0  0  0  0  0  0  0  0  0  0
   18.6230    4.4100   -9.0220 O   0  0  0  0  0  0  0  0  0  0  0  0
   17.4410    5.4950  -10.8770 C   0  0  0  0  0  0  0  0  0  0  0  0
   16.9150    6.6410  -10.2030 O   0  0  0  0  0  0  0  0  0  0  0  0
   24.0640   -1.5950    6.9850 C   0  0  0  0  0  0  0  0  0  0  0  0
   22.9070   -2.3200    7.4360 O   0  0  0  0  0  0  0  0  0  0  0  0
   25.0290   -2.5300    6.2570 C   0  0  0  0  0  0  0  0  0  0  0  0
   25.4110   -3.5810    7.1500 O   0  0  0  0  0  0  0  0  0  0  0  0
   24.5690   -1.1410    7.8410 H   0  0  0  0  0  0  0  0  0  0  0  0
   23.7550   -0.7920    6.3130 H   0  0  0  0  0  0  0  0  0  0  0  0
   22.3630   -1.7450    7.9920 H   0  0  0  0  0  0  0  0  0  0  0  0
   24.5470   -2.9480    5.3710 H   0  0  0  0  0  0  0  0  0  0  0  0
   25.9110   -1.9770    5.9300 H   0  0  0  0  0  0  0  0  0  0  0  0
   25.9380   -4.2350    6.6710 H   0  0  0  0  0  0  0  0  0  0  0  0
  1  2  1  0  0  0  0
  3  1  1  0  0  0  0
  3  4  1  0  0  0  0
  5  6  1  0  0  0  0
  5  9  1  0  0  0  0
  6 11  1  0  0  0  0
  7  5  1  0  0  0  0
  7  8  1  0  0  0  0
 10  5  1  0  0  0  0
 12  7  1  0  0  0  0
 13  7  1  0  0  0  0
 14  8  1  0  0  0  0
M  END
$$$$
