/Users/chinazoemeh/HopeMScP/data/ligands/BRD4-BD1_BRD4-BD1_59_6C7R/BRD4-BD1_BRD4-BD1_59_6C7R.pdb
 OpenBabel07142514433D

 40 37  0  0  1  0  0  0  0  0999 V2000
   -1.9080    3.0250   19.6880 C   0  0  0  0  0  0  0  0  0  0  0  0
   -1.8630    3.0500   19.6510 C   0  0  0  0  0  0  0  0  0  0  0  0
   -1.1710    3.8500   20.6740 C   0  0  0  0  0  0  0  0  0  0  0  0
   -1.7930    4.9160   21.3660 C   0  0  0  0  0  0  0  0  0  0  0  0
   -3.8430    6.1060   21.7970 C   0  0  0  0  0  0  0  0  0  0  0  0
    0.2710    7.6460   24.9050 N   0  0  0  0  0  0  0  0  0  0  0  0
   -1.6020    2.7850   18.3850 C   0  0  0  0  0  0  0  0  0  0  0  0
   -3.0130    2.3400   19.7970 C   0  0  0  0  0  0  0  0  0  0  0  0
   -1.1020    5.6330   22.3400 C   0  0  0  0  0  0  0  0  0  0  0  0
    0.2230    5.3240   22.6280 C   0  0  0  0  0  0  0  0  0  0  0  0
    0.8480    4.2870   21.9140 C   0  0  0  0  0  0  0  0  0  0  0  0
   -2.5450    1.9980   17.8280 O   0  0  0  0  0  0  0  0  0  0  0  0
   -3.3450    1.7680   18.6220 O   0  0  0  0  0  0  0  0  0  0  0  0
   -2.4680    9.2210   23.2670 N   0  0  0  0  0  0  0  0  0  0  0  0
    2.3620    4.9930   23.3940 C   0  0  0  0  0  0  0  0  0  0  0  0
   -1.8530    8.5780   24.3000 N   0  0  0  0  0  0  0  0  0  0  0  0
   -3.9530    2.1340   21.1410 C   0  0  0  0  0  0  0  0  0  0  0  0
   -0.3070    3.3800   17.5340 C   0  0  0  0  0  0  0  0  0  0  0  0
   -3.1490    2.2930   19.8940 C   0  0  0  0  0  0  0  0  0  0  0  0
   -1.4920    2.8470   18.2690 C   0  0  0  0  0  0  0  0  0  0  0  0
   -3.5280    1.6980   18.8020 N   0  0  0  0  0  0  0  0  0  0  0  0
   -2.3600    2.0990   17.6570 N   0  0  0  0  0  0  0  0  0  0  0  0
   -0.4980    3.2120   17.4920 C   0  0  0  0  0  0  0  0  0  0  0  0
   -3.8990    2.0360   20.9470 C   0  0  0  0  0  0  0  0  0  0  0  0
    0.1650    3.5530   20.9670 C   0  0  0  0  0  0  0  0  0  0  0  0
    2.1400    4.1280   22.3750 N   0  0  0  0  0  0  0  0  0  0  0  0
    3.4480    5.0550   24.1750 N   0  0  0  0  0  0  0  0  0  0  0  0
    3.3660    5.9120   25.1990 C   0  0  0  0  0  0  0  0  0  0  0  0
    4.5250    5.9760   26.1360 C   0  0  0  0  0  0  0  0  0  0  0  0
    2.3210    6.7000   25.4660 N   0  0  0  0  0  0  0  0  0  0  0  0
    1.2340    6.6650   24.6860 C   0  0  0  0  0  0  0  0  0  0  0  0
    1.1860    5.7840   23.5940 C   0  0  2  0  0  0  0  0  0  0  0  0
   -3.0950    5.1660   21.0160 O   0  0  0  0  0  0  0  0  0  0  0  0
   -0.4840    8.3680   24.0240 C   0  0  0  0  0  0  0  0  0  0  0  0
   -2.6420    8.1480   25.4480 C   0  0  0  0  0  0  0  0  0  0  0  0
   -1.5440    9.4110   22.3290 C   0  0  0  0  0  0  0  0  0  0  0  0
   -0.2910    8.8720   22.7720 C   0  0  0  0  0  0  0  0  0  0  0  0
   -1.7240   10.0710   21.0060 C   0  0  0  0  0  0  0  0  0  0  0  0
   -2.7000   11.2000   20.8240 C   0  0  0  0  0  0  0  0  0  0  0  0
   -3.0000    9.8830   20.2370 C   0  0  0  0  0  0  0  0  0  0  0  0
  1  8  1  0  0  0  0
  3 25  2  0  0  0  0
  3  4  1  0  0  0  0
  4  9  2  0  0  0  0
  7  2  1  0  0  0  0
  9 10  1  0  0  0  0
 11 26  1  0  0  0  0
 11 10  2  0  0  0  0
 12 13  2  0  0  0  0
 14 16  1  0  0  0  0
 15 32  1  0  0  0  0
 15 27  1  0  0  0  0
 16 35  1  0  0  0  0
 19 24  3  0  0  0  0
 21  8  2  0  0  0  0
 22  7  2  0  0  0  0
 23 20  3  0  0  0  0
 25 11  1  0  0  0  0
 26 15  2  0  0  0  0
 27 28  2  0  0  0  0
 28 30  1  0  0  0  0
 28 29  1  0  0  0  0
 31  6  1  0  0  0  0
 31 30  2  0  0  0  0
 32 10  1  1  0  0  0
 32 31  1  0  0  0  0
 33  4  1  0  0  0  0
 33  5  1  0  0  0  0
 34 16  1  0  0  0  0
 34  6  1  0  0  0  0
 36 37  1  0  0  0  0
 36 14  2  0  0  0  0
 37 34  2  0  0  0  0
 38 36  1  0  0  0  0
 39 38  1  0  0  0  0
 40 39  1  0  0  0  0
 40 38  1  0  0  0  0
M  END
$$$$
