/Users/chinazoemeh/HopeMScP/data/ligands/BRD4-BD1_BRD4-BD1_95_6PS9/BRD4-BD1_BRD4-BD1_95_6PS9.pdb
 OpenBabel07142514423D

 44 47  0  0  1  0  0  0  0  0999 V2000
   13.1700    3.0760   -1.7200 C   0  0  0  0  0  0  0  0  0  0  0  0
   14.5240    4.6170   -0.1300 C   0  0  0  0  0  0  0  0  0  0  0  0
   14.2530    5.8980    0.6460 C   0  0  0  0  0  0  0  0  0  0  0  0
   12.7510    5.9300    0.7150 C   0  0  1  0  0  0  0  0  0  0  0  0
   12.2220    7.4040    0.7770 C   0  0  0  0  0  0  0  0  0  0  0  0
   12.4080    8.1210    2.1070 C   0  0  0  0  0  0  0  0  0  0  0  0
   10.9570    6.5680    3.5730 C   0  0  0  0  0  0  0  0  0  0  0  0
    9.7340    6.5120    2.8430 C   0  0  0  0  0  0  0  0  0  0  0  0
    8.7070    5.7260    3.3420 C   0  0  0  0  0  0  0  0  0  0  0  0
    8.8610    4.9980    4.5400 C   0  0  0  0  0  0  0  0  0  0  0  0
   10.0570    5.0650    5.2580 C   0  0  0  0  0  0  0  0  0  0  0  0
   11.1350    5.8610    4.7750 C   0  0  0  0  0  0  0  0  0  0  0  0
   12.5020    6.1460    5.2160 C   0  0  0  0  0  0  0  0  0  0  0  0
   13.0700    7.0000    4.2970 C   0  0  0  0  0  0  0  0  0  0  0  0
   14.4680    7.5060    4.4260 C   0  0  0  0  0  0  0  0  0  0  0  0
   14.9250    7.5160    5.8790 C   0  0  0  0  0  0  0  0  0  0  0  0
   13.2470    5.6980    6.3720 C   0  0  0  0  0  0  0  0  0  0  0  0
   12.3470    5.1630   -0.6000 C   0  0  0  0  0  0  0  0  0  0  0  0
   13.4120    4.2380   -0.8240 N   0  0  0  0  0  0  0  0  0  0  0  0
   12.1610    7.2610    3.2930 N   0  0  0  0  0  0  0  0  0  0  0  0
   14.4720    6.3270    6.6560 N   0  0  0  0  0  0  0  0  0  0  0  0
   12.8920    4.7590    7.0920 O   0  0  0  0  0  0  0  0  0  0  0  0
   15.5650    3.9710   -0.1520 O   0  0  0  0  0  0  0  0  0  0  0  0
   12.3430    2.6020   -1.5390 H   0  0  0  0  0  0  0  0  0  0  0  0
   13.8570    2.3920   -1.6750 H   0  0  0  0  0  0  0  0  0  0  0  0
   13.1180    3.3060   -2.6610 H   0  0  0  0  0  0  0  0  0  0  0  0
   14.5050    6.7460    0.2480 H   0  0  0  0  0  0  0  0  0  0  0  0
   14.5490    5.9550    1.5690 H   0  0  0  0  0  0  0  0  0  0  0  0
   12.6350    5.4620    1.5570 H   0  0  0  0  0  0  0  0  0  0  0  0
   11.2750    7.4430    0.5740 H   0  0  0  0  0  0  0  0  0  0  0  0
   12.6520    7.9570    0.1050 H   0  0  0  0  0  0  0  0  0  0  0  0
   11.8210    8.8920    2.1520 H   0  0  0  0  0  0  0  0  0  0  0  0
   13.3050    8.4840    2.1650 H   0  0  0  0  0  0  0  0  0  0  0  0
    9.6160    6.9850    2.0510 H   0  0  0  0  0  0  0  0  0  0  0  0
    7.8940    5.6640    2.8950 H   0  0  0  0  0  0  0  0  0  0  0  0
    8.1500    4.4770    4.8360 H   0  0  0  0  0  0  0  0  0  0  0  0
   10.1560    4.5920    6.0530 H   0  0  0  0  0  0  0  0  0  0  0  0
   14.5790    8.4010    4.0690 H   0  0  0  0  0  0  0  0  0  0  0  0
   15.1060    6.9850    3.9130 H   0  0  0  0  0  0  0  0  0  0  0  0
   14.6330    8.3370    6.3060 H   0  0  0  0  0  0  0  0  0  0  0  0
   15.8900    7.6040    5.9160 H   0  0  0  0  0  0  0  0  0  0  0  0
   11.5610    4.5960   -0.5670 H   0  0  0  0  0  0  0  0  0  0  0  0
   12.3130    5.6710   -1.4260 H   0  0  0  0  0  0  0  0  0  0  0  0
   14.7600    6.3250    7.4990 H   0  0  0  0  0  0  0  0  0  0  0  0
  1 25  1  0  0  0  0
  1 24  1  0  0  0  0
  1 19  1  0  0  0  0
  2  3  1  0  0  0  0
  3  4  1  0  0  0  0
  3 28  1  0  0  0  0
  4  5  1  0  0  0  0
  4 29  1  1  0  0  0
  5  6  1  0  0  0  0
  6 32  1  0  0  0  0
  6 33  1  0  0  0  0
  6 20  1  0  0  0  0
  7 12  1  0  0  0  0
  8  9  1  0  0  0  0
  8  7  2  0  0  0  0
  9 10  2  0  0  0  0
 10 36  1  0  0  0  0
 10 11  1  0  0  0  0
 11 37  1  0  0  0  0
 12 13  1  0  0  0  0
 12 11  2  0  0  0  0
 13 17  1  0  0  0  0
 14 15  1  0  0  0  0
 14 13  2  0  0  0  0
 15 16  1  0  0  0  0
 16 41  1  0  0  0  0
 16 40  1  0  0  0  0
 16 21  1  0  0  0  0
 17 21  1  0  0  0  0
 17 22  2  0  0  0  0
 18 42  1  0  0  0  0
 18  4  1  0  0  0  0
 19 18  1  0  0  0  0
 19  2  1  0  0  0  0
 20  7  1  0  0  0  0
 20 14  1  0  0  0  0
 21 44  1  0  0  0  0
 23  2  2  0  0  0  0
 26  1  1  0  0  0  0
 27  3  1  0  0  0  0
 30  5  1  0  0  0  0
 31  5  1  0  0  0  0
 34  8  1  0  0  0  0
 35  9  1  0  0  0  0
 38 15  1  0  0  0  0
 39 15  1  0  0  0  0
 43 18  1  0  0  0  0
M  END
$$$$
