/Users/chinazoemeh/HopeMScP/data/ligands/BRD4-BD1_BRD4-BD1_62_6CZU/BRD4-BD1_BRD4-BD1_62_6CZU.pdb
 OpenBabel07142514433D

 36 28  0  0  1  0  0  0  0  0999 V2000
  -10.0960  -15.8390   39.6400 C   0  0  0  0  0  0  0  0  0  0  0  0
   -9.6280  -14.9220   38.6370 O   0  0  0  0  0  0  0  0  0  0  0  0
   -8.8770  -16.0960   40.5290 C   0  0  0  0  0  0  0  0  0  0  0  0
   -8.6580  -14.9910   41.4280 O   0  0  0  0  0  0  0  0  0  0  0  0
   -5.5680   -4.4020   38.0740 C   0  0  0  0  0  0  0  0  0  0  0  0
   -5.0280   -5.6080   38.7900 O   0  0  0  0  0  0  0  0  0  0  0  0
   -5.0450   -4.1740   36.6220 C   0  0  0  0  0  0  0  0  0  0  0  0
   -5.4680   -5.3190   35.9280 O   0  0  0  0  0  0  0  0  0  0  0  0
   -8.5560  -16.4450   16.4590 C   0  0  0  0  0  0  0  0  0  0  0  0
   -9.3200  -15.3820   17.0500 O   0  0  0  0  0  0  0  0  0  0  0  0
   -9.3860  -17.5440   15.8790 C   0  0  0  0  0  0  0  0  0  0  0  0
  -10.3760  -18.0710   16.8080 O   0  0  0  0  0  0  0  0  0  0  0  0
    9.4470   -9.3860   24.9690 C   0  0  0  0  0  0  0  0  0  0  0  0
   10.1960   -9.5640   24.6090 C   0  0  0  0  0  0  0  0  0  0  0  0
   10.1510   -9.5140   26.1790 O   0  0  0  0  0  0  0  0  0  0  0  0
   10.1960   -9.6270   26.0390 O   0  0  0  0  0  0  0  0  0  0  0  0
    9.9970  -10.3930   23.9660 C   0  0  1  0  0  0  0  0  0  0  0  0
   10.8680  -10.7180   23.8800 C   0  0  0  0  0  0  0  0  0  0  0  0
    9.4070  -11.6650   24.2440 O   0  0  0  0  0  0  0  0  0  0  0  0
   12.2630  -10.4720   23.5860 O   0  0  0  0  0  0  0  0  0  0  0  0
    2.3920    7.4580   13.5670 C   0  0  0  0  0  0  0  0  0  0  0  0
    2.0660    8.1260   13.1520 C   0  0  0  0  0  0  0  0  0  0  0  0
    2.5680    6.3170   12.7460 O   0  0  0  0  0  0  0  0  0  0  0  0
    2.8430    6.9280   12.9720 O   0  0  0  0  0  0  0  0  0  0  0  0
    2.2630    8.6510   12.6410 C   0  0  2  0  0  0  0  0  0  0  0  0
    2.7010    9.3830   12.5480 C   0  0  0  0  0  0  0  0  0  0  0  0
    1.5610    9.6360   13.3130 O   0  0  0  0  0  0  0  0  0  0  0  0
    3.6810    9.2290   11.4580 O   0  0  0  0  0  0  0  0  0  0  0  0
    2.5640   -2.5450   40.0130 C   0  0  0  0  0  0  0  0  0  0  0  0
    1.8010   -1.7610   40.9730 O   0  0  0  0  0  0  0  0  0  0  0  0
    2.7230   -1.7270   38.7410 C   0  0  0  0  0  0  0  0  0  0  0  0
    4.1260   -1.4970   38.5220 O   0  0  0  0  0  0  0  0  0  0  0  0
   -3.2850   -8.5600   42.2850 C   0  0  0  0  0  0  0  0  0  0  0  0
   -2.2080   -8.6140   43.2530 O   0  0  0  0  0  0  0  0  0  0  0  0
   -3.0950   -7.4290   41.2660 C   0  0  0  0  0  0  0  0  0  0  0  0
   -2.9960   -6.1830   41.9610 O   0  0  0  0  0  0  0  0  0  0  0  0
  1  3  1  0  0  0  0
  2  1  1  0  0  0  0
  3  4  1  0  0  0  0
  5  6  1  0  0  0  0
  7  5  1  0  0  0  0
  8  7  1  0  0  0  0
  9 10  1  0  0  0  0
 11  9  1  0  0  0  0
 11 12  1  0  0  0  0
 13 16  1  0  0  0  0
 14 13  1  0  0  0  0
 17 19  1  1  0  0  0
 17 14  1  0  0  0  0
 18 17  1  0  0  0  0
 20 18  1  0  0  0  0
 22 21  1  0  0  0  0
 23 24  1  0  0  0  0
 24 21  1  0  0  0  0
 25 22  1  0  0  0  0
 25 27  1  1  0  0  0
 26 25  1  0  0  0  0
 28 26  1  0  0  0  0
 29 30  1  0  0  0  0
 31 29  1  0  0  0  0
 32 31  1  0  0  0  0
 33 34  1  0  0  0  0
 35 36  1  0  0  0  0
 35 33  1  0  0  0  0
M  END
$$$$
