/Users/chinazoemeh/HopeMScP/data/ligands/BRD4-BD1_BRD4-BD1_29_6U0D/BRD4-BD1_BRD4-BD1_29_6U0D.pdb
 OpenBabel07142514423D

  4  3  0  0  0  0  0  0  0  0999 V2000
  -12.6370   -4.2770   -0.3480 S   0  0  0  0  0  0  0  0  0  0  0  0
  -13.9510   -3.5460   -0.2900 O   0  0  0  0  0  0  0  0  0  0  0  0
  -11.6760   -3.6130   -1.7320 C   0  0  0  0  0  0  0  0  0  0  0  0
  -12.9020   -5.9500   -0.9960 C   0  0  0  0  0  0  0  0  0  0  0  0
  1  2  2  0  0  0  0
  3  1  1  0  0  0  0
  4  1  1  0  0  0  0
M  END
$$$$
