/Users/chinazoemeh/HopeMScP/data/ligands/BRD4-BD1_BRD4-BD1_70_6V1L/BRD4-BD1_BRD4-BD1_70_6V1L.pdb
 OpenBabel07142514423D

 26 28  0  0  0  0  0  0  0  0999 V2000
  -17.2390   15.4720   -4.2940 N   0  0  0  0  0  0  0  0  0  0  0  0
  -16.1900   15.2470   -5.1260 C   0  0  0  0  0  0  0  0  0  0  0  0
  -16.5300   12.8260   -4.9270 C   0  0  0  0  0  0  0  0  0  0  0  0
  -15.8000   13.9240   -5.4750 C   0  0  0  0  0  0  0  0  0  0  0  0
  -14.7180   13.6720   -6.3530 C   0  0  0  0  0  0  0  0  0  0  0  0
  -16.1590   11.4780   -5.2410 C   0  0  0  0  0  0  0  0  0  0  0  0
  -17.7580    9.2940   -2.5990 C   0  0  0  0  0  0  0  0  0  0  0  0
  -16.9800   10.2900   -3.2220 C   0  0  0  0  0  0  0  0  0  0  0  0
  -18.4430    8.4630   -4.7880 C   0  0  0  0  0  0  0  0  0  0  0  0
  -18.4900    8.3640   -3.3700 C   0  0  0  0  0  0  0  0  0  0  0  0
  -21.1730    9.0280   -2.2850 C   0  0  0  0  0  0  0  0  0  0  0  0
  -15.6020   10.5030   -1.2900 C   0  0  0  0  0  0  0  0  0  0  0  0
  -16.9180   10.4020   -4.6540 C   0  0  0  0  0  0  0  0  0  0  0  0
  -17.6190   13.1370   -4.0620 C   0  0  0  0  0  0  0  0  0  0  0  0
  -14.3710   12.3760   -6.6620 N   0  0  0  0  0  0  0  0  0  0  0  0
  -17.9490   14.4630   -3.7430 C   0  0  0  0  0  0  0  0  0  0  0  0
  -21.7430    6.6000   -2.3350 C   0  0  0  0  0  0  0  0  0  0  0  0
  -16.3050   11.1520   -2.3870 O   0  0  0  0  0  0  0  0  0  0  0  0
  -15.0730   11.3030   -6.1280 C   0  0  0  0  0  0  0  0  0  0  0  0
  -13.2580   12.1120   -7.5570 C   0  0  0  0  0  0  0  0  0  0  0  0
  -17.6650    9.4700   -5.4250 C   0  0  0  0  0  0  0  0  0  0  0  0
  -19.3180    7.3340   -2.6630 C   0  0  0  0  0  0  0  0  0  0  0  0
  -19.1490    7.5660   -5.5620 O   0  0  0  0  0  0  0  0  0  0  0  0
  -20.7930    7.6680   -2.7940 N   0  0  0  0  0  0  0  0  0  0  0  0
  -14.0790   14.6530   -6.8300 O   0  0  0  0  0  0  0  0  0  0  0  0
  -18.4580    7.1210   -6.7490 C   0  0  0  0  0  0  0  0  0  0  0  0
  1 16  1  0  0  0  0
  2  1  2  0  0  0  0
  3 14  1  0  0  0  0
  4  2  1  0  0  0  0
  4  3  2  0  0  0  0
  5  4  1  0  0  0  0
  6  3  1  0  0  0  0
  6 13  1  0  0  0  0
  8  7  1  0  0  0  0
  8 18  1  0  0  0  0
  9 10  1  0  0  0  0
 10 22  1  0  0  0  0
 10  7  2  0  0  0  0
 13  8  2  0  0  0  0
 14 16  2  0  0  0  0
 15  5  1  0  0  0  0
 15 19  1  0  0  0  0
 18 12  1  0  0  0  0
 19  6  2  0  0  0  0
 20 15  1  0  0  0  0
 21  9  2  0  0  0  0
 21 13  1  0  0  0  0
 23  9  1  0  0  0  0
 24 22  1  0  0  0  0
 24 17  1  0  0  0  0
 24 11  1  0  0  0  0
 25  5  2  0  0  0  0
 26 23  1  0  0  0  0
M  END
$$$$
