/Users/chinazoemeh/HopeMScP/data/ligands/BRD4-BD1_BRD4-BD1_83_8WQO/BRD4-BD1_BRD4-BD1_83_8WQO.pdb
 OpenBabel07142514423D

 57 60  0  0  1  0  0  0  0  0999 V2000
    6.6270  -11.0030   -0.8300 C   0  0  0  0  0  0  0  0  0  0  0  0
    9.0950  -10.0980   -3.5760 C   0  0  0  0  0  0  0  0  0  0  0  0
    9.1540   -7.5100   -3.8980 C   0  0  0  0  0  0  0  0  0  0  0  0
   10.6740   -7.7420   -0.0690 C   0  0  0  0  0  0  0  0  0  0  0  0
   11.8150   -6.8980    0.0270 C   0  0  0  0  0  0  0  0  0  0  0  0
   12.7690   -7.9550   -2.0050 C   0  0  0  0  0  0  0  0  0  0  0  0
   13.5480   -7.4130   -3.2090 C   0  0  0  0  0  0  0  0  0  0  0  0
   14.5560   -7.8220    0.8240 C   0  0  0  0  0  0  0  0  0  0  0  0
   12.8790   -3.7820    1.7270 C   0  0  0  0  0  0  0  0  0  0  0  0
   11.8920   -5.9770    1.0280 C   0  0  0  0  0  0  0  0  0  0  0  0
   10.8390   -5.8160    1.9610 C   0  0  0  0  0  0  0  0  0  0  0  0
    9.7250   -6.6440    1.8610 C   0  0  0  0  0  0  0  0  0  0  0  0
    9.6420   -7.5930    0.8570 C   0  0  0  0  0  0  0  0  0  0  0  0
    8.0140   -9.2940   -0.2010 C   0  0  0  0  0  0  0  0  0  0  0  0
    7.2850  -11.0230   -2.0470 C   0  0  0  0  0  0  0  0  0  0  0  0
    8.3180  -10.1330   -2.2780 C   0  0  0  0  0  0  0  0  0  0  0  0
    9.4600   -8.9650   -4.2700 C   0  0  0  0  0  0  0  0  0  0  0  0
    9.5840  -11.2040   -4.2710 C   0  0  0  0  0  0  0  0  0  0  0  0
    9.4270  -12.6730   -3.8670 C   0  0  0  0  0  0  0  0  0  0  0  0
   13.1210   -9.4100   -1.6650 C   0  0  0  0  0  0  0  0  0  0  0  0
   14.2060   -6.7940   -0.2650 C   0  0  2  0  0  0  0  0  0  0  0  0
   14.2470   -5.3800    0.4010 C   0  0  0  0  0  0  0  0  0  0  0  0
   13.0340   -5.0700    1.0750 N   0  0  0  0  0  0  0  0  0  0  0  0
    8.4030   -8.3740    0.8640 N   0  0  0  0  0  0  0  0  0  0  0  0
    7.0300  -10.1210    0.0670 N   0  0  0  0  0  0  0  0  0  0  0  0
   10.1250   -9.3650   -5.3280 N   0  0  0  0  0  0  0  0  0  0  0  0
   10.2210  -10.7390   -5.3560 N   0  0  0  0  0  0  0  0  0  0  0  0
    8.6520   -9.2800   -1.3310 N   0  0  0  0  0  0  0  0  0  0  0  0
   12.9330   -7.0250   -0.8740 N   0  0  0  0  0  0  0  0  0  0  0  0
   15.1590   -4.6160    0.4050 O   0  0  0  0  0  0  0  0  0  0  0  0
    5.9260  -11.5880   -0.6500 H   0  0  0  0  0  0  0  0  0  0  0  0
    9.5730   -6.9170   -4.5410 H   0  0  0  0  0  0  0  0  0  0  0  0
    9.5010   -7.3230   -3.0110 H   0  0  0  0  0  0  0  0  0  0  0  0
    8.1940   -7.3690   -3.9060 H   0  0  0  0  0  0  0  0  0  0  0  0
   10.6170   -8.3840   -0.7400 H   0  0  0  0  0  0  0  0  0  0  0  0
   11.8210   -7.9760   -2.2110 H   0  0  0  0  0  0  0  0  0  0  0  0
   14.1620   -6.7230   -2.9120 H   0  0  0  0  0  0  0  0  0  0  0  0
   12.9280   -7.0390   -3.8540 H   0  0  0  0  0  0  0  0  0  0  0  0
   14.0480   -8.1350   -3.6210 H   0  0  0  0  0  0  0  0  0  0  0  0
   15.3380   -8.3280    0.5510 H   0  0  0  0  0  0  0  0  0  0  0  0
   13.8080   -8.4260    0.9510 H   0  0  0  0  0  0  0  0  0  0  0  0
   14.7450   -7.3600    1.6560 H   0  0  0  0  0  0  0  0  0  0  0  0
   13.5660   -3.1740    1.4100 H   0  0  0  0  0  0  0  0  0  0  0  0
   12.9640   -3.8930    2.6870 H   0  0  0  0  0  0  0  0  0  0  0  0
   12.0040   -3.4180    1.5200 H   0  0  0  0  0  0  0  0  0  0  0  0
   10.8900   -5.1690    2.6270 H   0  0  0  0  0  0  0  0  0  0  0  0
    9.0310   -6.5600    2.4750 H   0  0  0  0  0  0  0  0  0  0  0  0
    7.0350  -11.6310   -2.7050 H   0  0  0  0  0  0  0  0  0  0  0  0
   10.1300  -13.1990   -4.2790 H   0  0  0  0  0  0  0  0  0  0  0  0
    8.5630  -12.9990   -4.1650 H   0  0  0  0  0  0  0  0  0  0  0  0
    9.4870  -12.7510   -2.9020 H   0  0  0  0  0  0  0  0  0  0  0  0
   14.0640   -9.5620   -1.8330 H   0  0  0  0  0  0  0  0  0  0  0  0
   12.5940  -10.0080   -2.2180 H   0  0  0  0  0  0  0  0  0  0  0  0
   12.9270   -9.5790   -0.7300 H   0  0  0  0  0  0  0  0  0  0  0  0
   14.8730   -6.9010   -0.9610 H   0  0  0  0  0  0  0  0  0  0  0  0
    7.8730   -8.2850    1.5360 H   0  0  0  0  0  0  0  0  0  0  0  0
   10.4560   -8.8410   -5.9240 H   0  0  0  0  0  0  0  0  0  0  0  0
  1 31  1  0  0  0  0
  1 25  1  0  0  0  0
  2 16  1  0  0  0  0
  3 33  1  0  0  0  0
  4  5  2  0  0  0  0
  4 13  1  0  0  0  0
  5 10  1  0  0  0  0
  6 20  1  0  0  0  0
  6 29  1  0  0  0  0
  7 37  1  0  0  0  0
  7  6  1  0  0  0  0
  8 41  1  0  0  0  0
  8 42  1  0  0  0  0
  9 44  1  0  0  0  0
 10 23  1  0  0  0  0
 10 11  2  0  0  0  0
 11 46  1  0  0  0  0
 12 11  1  0  0  0  0
 12 47  1  0  0  0  0
 13 24  1  0  0  0  0
 13 12  2  0  0  0  0
 14 25  2  0  0  0  0
 14 24  1  0  0  0  0
 15  1  2  0  0  0  0
 16 15  1  0  0  0  0
 16 28  2  0  0  0  0
 17  3  1  0  0  0  0
 17  2  2  0  0  0  0
 18 19  1  0  0  0  0
 18  2  1  0  0  0  0
 19 51  1  0  0  0  0
 20 54  1  0  0  0  0
 21 55  1  6  0  0  0
 21 22  1  0  0  0  0
 21  8  1  0  0  0  0
 22 30  2  0  0  0  0
 22 23  1  0  0  0  0
 23  9  1  0  0  0  0
 24 56  1  0  0  0  0
 26 17  1  0  0  0  0
 27 26  1  0  0  0  0
 27 18  2  0  0  0  0
 28 14  1  0  0  0  0
 29 21  1  0  0  0  0
 29  5  1  0  0  0  0
 32  3  1  0  0  0  0
 34  3  1  0  0  0  0
 35  4  1  0  0  0  0
 36  6  1  0  0  0  0
 38  7  1  0  0  0  0
 39  7  1  0  0  0  0
 40  8  1  0  0  0  0
 43  9  1  0  0  0  0
 45  9  1  0  0  0  0
 48 15  1  0  0  0  0
 49 19  1  0  0  0  0
 50 19  1  0  0  0  0
 52 20  1  0  0  0  0
 53 20  1  0  0  0  0
 57 26  1  0  0  0  0
M  END
$$$$
