/Users/chinazoemeh/HopeMScP/data/ligands/BRD4-BD1_BRD4-BD1_3_8B98/BRD4-BD1_BRD4-BD1_3_8B98.pdb
 OpenBabel07142514423D

 12  9  0  0  0  0  0  0  0  0999 V2000
  -14.2700    6.0700  -29.5550 C   0  0  0  0  0  0  0  0  0  0  0  0
  -15.4040    6.4200  -28.7840 O   0  0  0  0  0  0  0  0  0  0  0  0
  -13.6640    7.2930  -30.2280 C   0  0  0  0  0  0  0  0  0  0  0  0
  -14.5510    7.8780  -31.1840 O   0  0  0  0  0  0  0  0  0  0  0  0
   -9.1110   -3.8940  -32.4370 C   0  0  0  0  0  0  0  0  0  0  0  0
  -10.3530   -4.2330  -31.8780 O   0  0  0  0  0  0  0  0  0  0  0  0
   -7.9450   -4.6340  -31.8990 C   0  0  0  0  0  0  0  0  0  0  0  0
   -7.2380   -5.4070  -32.8560 O   0  0  0  0  0  0  0  0  0  0  0  0
   -9.8440   16.2980  -15.7050 C   0  0  0  0  0  0  0  0  0  0  0  0
   -9.9940   15.0960  -16.4170 O   0  0  0  0  0  0  0  0  0  0  0  0
  -10.5660   17.4060  -16.3550 C   0  0  0  0  0  0  0  0  0  0  0  0
  -11.8880   17.5350  -15.9030 O   0  0  0  0  0  0  0  0  0  0  0  0
  1  2  1  0  0  0  0
  3  1  1  0  0  0  0
  4  3  1  0  0  0  0
  5  7  1  0  0  0  0
  5  6  1  0  0  0  0
  8  7  1  0  0  0  0
 10  9  1  0  0  0  0
 11 12  1  0  0  0  0
 11  9  1  0  0  0  0
M  END
$$$$
