REMARK  Name = /Users/chinazoemeh/HopeMScP/data/ligands/BRD4-BD1_BRD4-BD1_30_4WIV/BRD4-BD1_BRD4-BD1_30_4WIV.pdb
REMARK  2 active torsions:
REMARK  status: ('A' for Active; 'I' for Inactive)
REMARK    1  A    between atoms: C1_1  and  C2_3
REMARK    2  A    between atoms: C1_5  and  C2_7
REMARK                            x       y       z     vdW  Elec       q    Type
REMARK                         _______ _______ _______ _____ _____    ______ ____
ROOT
ATOM      1  C1  EDO A 202       5.650  -3.798 -37.872  0.00  0.00    +0.000 C 
ATOM      2  O1  EDO A 202       4.919  -4.842 -38.531  0.00  0.00    +0.000 OA
ENDROOT
BRANCH   1   3
ATOM      3  C2  EDO A 202       5.178  -3.695 -36.423  0.00  0.00    +0.000 C 
ATOM      4  O2  EDO A 202       5.606  -4.827 -35.674  0.00  0.00    +0.000 OA
ENDBRANCH   1   3
TORSDOF 1
REMARK  Name = /Users/chinazoemeh/HopeMScP/data/ligands/BRD4-BD1_BRD4-BD1_30_4WIV/BRD4-BD1_BRD4-BD1_30_4WIV.pdb
REMARK  2 active torsions:
REMARK  status: ('A' for Active; 'I' for Inactive)
REMARK    1  A    between atoms: C1_1  and  C2_3
REMARK    2  A    between atoms: C1_5  and  C2_7
REMARK                            x       y       z     vdW  Elec       q    Type
REMARK                         _______ _______ _______ _____ _____    ______ ____
ROOT
ATOM      1  C1  EDO A 203      11.624  -1.302 -23.353  0.00  0.00    +0.000 C 
ATOM      2  O1  EDO A 203      12.236  -0.423 -22.404  0.00  0.00    +0.000 OA
ENDROOT
BRANCH   1   3
ATOM      3  C2  EDO A 203      11.512  -0.580 -24.688  0.00  0.00    +0.000 C 
ATOM      4  O2  EDO A 203      12.405  -1.183 -25.630  0.00  0.00    +0.000 OA
ENDBRANCH   1   3
TORSDOF 1
