REMARK  Name = /Users/chinazoemeh/HopeMScP/data/ligands/BRD4-BD1_BRD4-BD1_56_6ZCI/BRD4-BD1_BRD4-BD1_56_6ZCI.pdb
REMARK  3 active torsions:
REMARK  status: ('A' for Active; 'I' for Inactive)
REMARK    1  A    between atoms: C16_6  and  C8_24
REMARK    2  A    between atoms: C27_15  and  N2_19
REMARK    3  A    between atoms: N7_23  and  C10_26
REMARK                            x       y       z     vdW  Elec       q    Type
REMARK                         _______ _______ _______ _____ _____    ______ ____
ROOT
ATOM      1  C3  QFN A 201      -6.217  -9.318   0.244  0.00  0.00    +0.000 A 
ATOM      2  C26 QFN A 201      -6.005  -9.904   1.608  0.00  0.00    +0.000 C 
ATOM      3  N1  QFN A 201      -5.459  -9.468  -0.769  0.00  0.00    +0.000 NA
ATOM      4  N2  QFN A 201      -5.960  -8.839  -1.868  0.00  0.00    +0.000 N 
ATOM      5  C4  QFN A 201      -7.331  -8.508  -0.238  0.00  0.00    +0.000 A 
ATOM      6  C5  QFN A 201      -7.083  -8.275  -1.514  0.00  0.00    +0.000 A 
ATOM      7  C6  QFN A 201      -8.144  -7.398  -2.019  0.00  0.00    +0.000 C 
ATOM      8  N7  QFN A 201      -9.042  -7.205  -0.995  0.00  0.00    +0.000 N 
ATOM      9  C8  QFN A 201      -8.615  -7.909   0.240  0.00  0.00    +0.000 C 
ATOM     10  O9  QFN A 201      -8.212  -7.043  -3.192  0.00  0.00    +0.000 OA
ENDROOT
BRANCH   8  17
ATOM     11  C11 QFN A 201     -11.378  -7.046  -0.460  0.00  0.00    +0.000 A 
ATOM     12  C12 QFN A 201     -12.745  -5.209  -1.079  0.00  0.00    +0.000 A 
ATOM     13  C13 QFN A 201     -11.589  -4.603  -1.771  0.00  0.00    +0.000 A 
ATOM     14  C15 QFN A 201     -10.415  -5.251  -1.732  0.00  0.00    +0.000 A 
ATOM     15  C23 QFN A 201     -13.731  -7.031   0.217  0.00  0.00    +0.000 C 
ATOM     16  C25 QFN A 201     -11.710  -3.314  -2.550  0.00  0.00    +0.000 C 
ATOM     17  C10 QFN A 201     -10.253  -6.542  -1.022  0.00  0.00    +0.000 A 
ATOM     18  N14 QFN A 201     -12.588  -6.412  -0.472  0.00  0.00    +0.000 N 
ATOM     19  O24 QFN A 201     -13.813  -4.601  -1.069  0.00  0.00    +0.000 OA
ENDBRANCH   8  17
BRANCH   9  20
ATOM     20  C16 QFN A 201      -8.405  -6.974   1.439  0.00  0.00    +0.000 A 
ATOM     21  C17 QFN A 201      -7.443  -5.959   1.376  0.00  0.00    +0.000 A 
ATOM     22  C18 QFN A 201      -8.102  -5.176   3.562  0.00  0.00    +0.000 A 
ATOM     23  C19 QFN A 201      -9.058  -6.193   3.644  0.00  0.00    +0.000 A 
ATOM     24  C20 QFN A 201      -7.283  -5.068   2.438  0.00  0.00    +0.000 A 
ATOM     25  C21 QFN A 201      -9.214  -7.085   2.579  0.00  0.00    +0.000 A 
ATOM     26  CL  QFN A 201      -7.878  -4.066   4.892  0.00  0.00    +0.000 Cl
ENDBRANCH   9  20
BRANCH   4  27
ATOM     27  C27 QFN A 201      -5.317  -8.814  -3.175  0.00  0.00    +0.000 C 
ATOM     28  C28 QFN A 201      -4.830  -7.428  -3.639  0.00  0.00    +0.000 C 
ATOM     29  C29 QFN A 201      -3.804  -8.498  -3.223  0.00  0.00    +0.000 C 
ENDBRANCH   4  27
TORSDOF 3
