REMARK  Name = /Users/chinazoemeh/HopeMScP/data/ligands/BRD4-BD1_BRD4-BD1_89_6KEH/BRD4-BD1_BRD4-BD1_89_6KEH.pdb
REMARK  0 active torsions:
REMARK  status: ('A' for Active; 'I' for Inactive)
REMARK                            x       y       z     vdW  Elec       q    Type
REMARK                         _______ _______ _______ _____ _____    ______ ____
ROOT
ATOM      1  C   FMT A 201      -8.489 -14.164  88.796  0.00  0.00    +0.000 C 
ATOM      2  O1  FMT A 201      -7.888 -13.089  88.825  0.00  0.00    +0.000 OA
ATOM      3  O2  FMT A 201      -9.626 -14.350  89.250  0.00  0.00    +0.000 OA
ENDROOT
TORSDOF 0
REMARK  Name = /Users/chinazoemeh/HopeMScP/data/ligands/BRD4-BD1_BRD4-BD1_89_6KEH/BRD4-BD1_BRD4-BD1_89_6KEH.pdb
REMARK  0 active torsions:
REMARK  status: ('A' for Active; 'I' for Inactive)
REMARK                            x       y       z     vdW  Elec       q    Type
REMARK                         _______ _______ _______ _____ _____    ______ ____
ROOT
ATOM      1  C   FMT A 202     -20.968  17.864  97.266  0.00  0.00    +0.000 C 
ATOM      2  O1  FMT A 202     -21.482  16.752  97.239  0.00  0.00    +0.000 OA
ATOM      3  O2  FMT A 202     -19.775  18.065  97.071  0.00  0.00    +0.000 OA
ENDROOT
TORSDOF 0
REMARK  Name = /Users/chinazoemeh/HopeMScP/data/ligands/BRD4-BD1_BRD4-BD1_89_6KEH/BRD4-BD1_BRD4-BD1_89_6KEH.pdb
REMARK  0 active torsions:
REMARK  status: ('A' for Active; 'I' for Inactive)
REMARK                            x       y       z     vdW  Elec       q    Type
REMARK                         _______ _______ _______ _____ _____    ______ ____
ROOT
ATOM      1  C   FMT A 203     -23.927  20.955  98.152  0.00  0.00    +0.000 C 
ATOM      2  O1  FMT A 203     -24.733  20.882  99.087  0.00  0.00    +0.000 OA
ATOM      3  O2  FMT A 203     -23.858  20.147  97.218  0.00  0.00    +0.000 OA
ENDROOT
TORSDOF 0
REMARK  Name = /Users/chinazoemeh/HopeMScP/data/ligands/BRD4-BD1_BRD4-BD1_89_6KEH/BRD4-BD1_BRD4-BD1_89_6KEH.pdb
REMARK  0 active torsions:
REMARK  status: ('A' for Active; 'I' for Inactive)
REMARK                            x       y       z     vdW  Elec       q    Type
REMARK                         _______ _______ _______ _____ _____    ______ ____
ROOT
ATOM      1  C   FMT A 204     -18.505  24.971  84.463  0.00  0.00    +0.000 C 
ATOM      2  O1  FMT A 204     -19.479  25.436  83.869  0.00  0.00    +0.000 OA
ATOM      3  O2  FMT A 204     -17.657  24.252  83.931  0.00  0.00    +0.000 OA
ENDROOT
TORSDOF 0
