REMARK  Name = /Users/chinazoemeh/HopeMScP/data/ligands/BRD4-BD1_BRD4-BD1_60_6VUB/BRD4-BD1_BRD4-BD1_60_6VUB.pdb
REMARK  1 active torsions:
REMARK  status: ('A' for Active; 'I' for Inactive)
REMARK    1  A    between atoms: C04_6  and  C05_7
REMARK                            x       y       z     vdW  Elec       q    Type
REMARK                         _______ _______ _______ _____ _____    ______ ____
ROOT
ATOM      1  C13 RLG A 201      12.791   3.115  -1.515  0.00  0.00    +0.000 C 
ATOM      2  C11 RLG A 201      11.883   5.540  -1.064  0.00  0.00    +0.000 C 
ATOM      3  C02 RLG A 201      13.973   4.845  -0.165  0.00  0.00    +0.000 C 
ATOM      4  C03 RLG A 201      13.732   6.274   0.275  0.00  0.00    +0.000 C 
ATOM      5  C04 RLG A 201      12.245   6.587   0.002  0.00  0.00    +0.000 C 
ATOM      6  N12 RLG A 201      12.868   4.450  -0.929  0.00  0.00    +0.000 N 
ATOM      7  O01 RLG A 201      14.922   4.159   0.062  0.00  0.00    +0.000 OA
ENDROOT
BRANCH   5   9
ATOM      8  C10 RLG A 201      11.802   6.166   2.461  0.00  0.00    +0.000 A 
ATOM      9  C05 RLG A 201      11.351   6.429   1.182  0.00  0.00    +0.000 A 
ATOM     10  C06 RLG A 201       9.955   6.529   0.978  0.00  0.00    +0.000 A 
ATOM     11  C07 RLG A 201       9.080   6.377   2.051  0.00  0.00    +0.000 A 
ATOM     12  C08 RLG A 201       9.548   6.116   3.330  0.00  0.00    +0.000 A 
ATOM     13  C09 RLG A 201      10.928   6.018   3.537  0.00  0.00    +0.000 A 
ENDBRANCH   5   9
TORSDOF 1
