REMARK  Name = /Users/chinazoemeh/HopeMScP/data/ligands/BRD4-BD1_BRD4-BD1_81_6U74/BRD4-BD1_BRD4-BD1_81_6U74.pdb
REMARK  36 active torsions:
REMARK  status: ('A' for Active; 'I' for Inactive)
REMARK    1  A    between atoms: NZ_4  and  CE_5
REMARK    2  A    between atoms: CE_5  and  CD_6
REMARK    3  A    between atoms: CD_6  and  CG_7
REMARK    4  A    between atoms: CG_7  and  CB_8
REMARK    5  A    between atoms: CB_8  and  CA_9
REMARK    6  A    between atoms: CA_9  and  C_11
REMARK    7  A    between atoms: NZ_16  and  CE_17
REMARK    8  A    between atoms: CE_17  and  CD_18
REMARK    9  A    between atoms: CD_18  and  CG_19
REMARK   10  A    between atoms: CG_19  and  CB_20
REMARK   11  A    between atoms: CB_20  and  CA_21
REMARK   12  A    between atoms: CA_21  and  C_23
REMARK   13  A    between atoms: NZ_28  and  CE_29
REMARK   14  A    between atoms: CE_29  and  CD_30
REMARK   15  A    between atoms: CD_30  and  CG_31
REMARK   16  A    between atoms: CG_31  and  CB_32
REMARK   17  A    between atoms: CB_32  and  CA_33
REMARK   18  A    between atoms: CA_33  and  C_35
REMARK   19  A    between atoms: NZ_40  and  CE_41
REMARK   20  A    between atoms: CE_41  and  CD_42
REMARK   21  A    between atoms: CD_42  and  CG_43
REMARK   22  A    between atoms: CG_43  and  CB_44
REMARK   23  A    between atoms: CB_44  and  CA_45
REMARK   24  A    between atoms: CA_45  and  C_47
REMARK   25  A    between atoms: NZ_52  and  CE_53
REMARK   26  A    between atoms: CE_53  and  CD_54
REMARK   27  A    between atoms: CD_54  and  CG_55
REMARK   28  A    between atoms: CG_55  and  CB_56
REMARK   29  A    between atoms: CB_56  and  CA_57
REMARK   30  A    between atoms: CA_57  and  C_59
REMARK   31  A    between atoms: NZ_64  and  CE_65
REMARK   32  A    between atoms: CE_65  and  CD_66
REMARK   33  A    between atoms: CD_66  and  CG_67
REMARK   34  A    between atoms: CG_67  and  CB_68
REMARK   35  A    between atoms: CB_68  and  CA_69
REMARK   36  A    between atoms: CA_69  and  C_71
REMARK                            x       y       z     vdW  Elec       q    Type
REMARK                         _______ _______ _______ _____ _____    ______ ____
ROOT
ATOM      1  CD  ALY E   5      27.525   4.597  -9.273  0.00  0.00    +0.000 C 
ENDROOT
BRANCH   1   2
ATOM      2  CE  ALY E   5      27.695   3.128  -9.665  0.00  0.00    +0.000 C 
BRANCH   2   6
ATOM      3  OH  ALY E   5      27.240   0.435 -10.313  0.00  0.00    +0.000 OA
ATOM      4  CH  ALY E   5      26.571   1.306 -10.904  0.00  0.00    +0.000 C 
ATOM      5  CH3 ALY E   5      25.539   0.938 -11.942  0.00  0.00    +0.000 C 
ATOM      6  NZ  ALY E   5      26.746   2.650 -10.630  0.00  0.00    +0.000 NA
ENDBRANCH   2   6
ENDBRANCH   1   2
BRANCH   1   7
ATOM      7  CG  ALY E   5      26.205   4.793  -8.559  0.00  0.00    +0.000 C 
BRANCH   7   8
ATOM      8  CB  ALY E   5      25.832   6.257  -8.521  0.00  0.00    +0.000 C 
BRANCH   8   9
ATOM      9  CA  ALY E   5      26.844   7.078  -7.699  0.00  0.00    +0.000 C 
ATOM     10  N   ALY E   5      26.850   6.740  -6.288  0.00  0.00    +0.000 NA
BRANCH   9  11
ATOM     11  C   ALY E   5      26.531   8.545  -7.964  0.00  0.00    +0.000 C 
ATOM     12  O   ALY E   5      25.574   8.933  -8.639  0.00  0.00    +0.000 OA
ENDBRANCH   9  11
ENDBRANCH   8   9
ENDBRANCH   7   8
ENDBRANCH   1   7
TORSDOF 6
REMARK  Name = /Users/chinazoemeh/HopeMScP/data/ligands/BRD4-BD1_BRD4-BD1_81_6U74/BRD4-BD1_BRD4-BD1_81_6U74.pdb
REMARK  36 active torsions:
REMARK  status: ('A' for Active; 'I' for Inactive)
REMARK    1  A    between atoms: NZ_4  and  CE_5
REMARK    2  A    between atoms: CE_5  and  CD_6
REMARK    3  A    between atoms: CD_6  and  CG_7
REMARK    4  A    between atoms: CG_7  and  CB_8
REMARK    5  A    between atoms: CB_8  and  CA_9
REMARK    6  A    between atoms: CA_9  and  C_11
REMARK    7  A    between atoms: NZ_16  and  CE_17
REMARK    8  A    between atoms: CE_17  and  CD_18
REMARK    9  A    between atoms: CD_18  and  CG_19
REMARK   10  A    between atoms: CG_19  and  CB_20
REMARK   11  A    between atoms: CB_20  and  CA_21
REMARK   12  A    between atoms: CA_21  and  C_23
REMARK   13  A    between atoms: NZ_28  and  CE_29
REMARK   14  A    between atoms: CE_29  and  CD_30
REMARK   15  A    between atoms: CD_30  and  CG_31
REMARK   16  A    between atoms: CG_31  and  CB_32
REMARK   17  A    between atoms: CB_32  and  CA_33
REMARK   18  A    between atoms: CA_33  and  C_35
REMARK   19  A    between atoms: NZ_40  and  CE_41
REMARK   20  A    between atoms: CE_41  and  CD_42
REMARK   21  A    between atoms: CD_42  and  CG_43
REMARK   22  A    between atoms: CG_43  and  CB_44
REMARK   23  A    between atoms: CB_44  and  CA_45
REMARK   24  A    between atoms: CA_45  and  C_47
REMARK   25  A    between atoms: NZ_52  and  CE_53
REMARK   26  A    between atoms: CE_53  and  CD_54
REMARK   27  A    between atoms: CD_54  and  CG_55
REMARK   28  A    between atoms: CG_55  and  CB_56
REMARK   29  A    between atoms: CB_56  and  CA_57
REMARK   30  A    between atoms: CA_57  and  C_59
REMARK   31  A    between atoms: NZ_64  and  CE_65
REMARK   32  A    between atoms: CE_65  and  CD_66
REMARK   33  A    between atoms: CD_66  and  CG_67
REMARK   34  A    between atoms: CG_67  and  CB_68
REMARK   35  A    between atoms: CB_68  and  CA_69
REMARK   36  A    between atoms: CA_69  and  C_71
REMARK                            x       y       z     vdW  Elec       q    Type
REMARK                         _______ _______ _______ _____ _____    ______ ____
ROOT
ATOM      1  CD  ALY E   7      20.842  10.665  -4.660  0.00  0.00    +0.000 C 
ENDROOT
BRANCH   1   2
ATOM      2  CE  ALY E   7      19.681  11.471  -5.248  0.00  0.00    +0.000 C 
BRANCH   2   6
ATOM      3  OH  ALY E   7      16.992  11.641  -6.046  0.00  0.00    +0.000 OA
ATOM      4  CH  ALY E   7      17.811  11.117  -6.828  0.00  0.00    +0.000 C 
ATOM      5  CH3 ALY E   7      17.371  10.580  -8.168  0.00  0.00    +0.000 C 
ATOM      6  NZ  ALY E   7      19.150  10.993  -6.493  0.00  0.00    +0.000 NA
ENDBRANCH   2   6
ENDBRANCH   1   2
BRANCH   1   7
ATOM      7  CG  ALY E   7      22.084  11.523  -4.560  0.00  0.00    +0.000 C 
BRANCH   7   8
ATOM      8  CB  ALY E   7      23.186  10.935  -5.408  0.00  0.00    +0.000 C 
BRANCH   8   9
ATOM      9  CA  ALY E   7      24.572  11.502  -5.058  0.00  0.00    +0.000 C 
ATOM     10  N   ALY E   7      25.650  10.923  -5.833  0.00  0.00    +0.000 NA
BRANCH   9  11
ATOM     11  C   ALY E   7      24.871  11.271  -3.582  0.00  0.00    +0.000 C 
ATOM     12  O   ALY E   7      25.151  10.172  -3.099  0.00  0.00    +0.000 OA
ENDBRANCH   9  11
ENDBRANCH   8   9
ENDBRANCH   7   8
ENDBRANCH   1   7
TORSDOF 6
REMARK  Name = /Users/chinazoemeh/HopeMScP/data/ligands/BRD4-BD1_BRD4-BD1_81_6U74/BRD4-BD1_BRD4-BD1_81_6U74.pdb
REMARK  36 active torsions:
REMARK  status: ('A' for Active; 'I' for Inactive)
REMARK    1  A    between atoms: NZ_4  and  CE_5
REMARK    2  A    between atoms: CE_5  and  CD_6
REMARK    3  A    between atoms: CD_6  and  CG_7
REMARK    4  A    between atoms: CG_7  and  CB_8
REMARK    5  A    between atoms: CB_8  and  CA_9
REMARK    6  A    between atoms: CA_9  and  C_11
REMARK    7  A    between atoms: NZ_16  and  CE_17
REMARK    8  A    between atoms: CE_17  and  CD_18
REMARK    9  A    between atoms: CD_18  and  CG_19
REMARK   10  A    between atoms: CG_19  and  CB_20
REMARK   11  A    between atoms: CB_20  and  CA_21
REMARK   12  A    between atoms: CA_21  and  C_23
REMARK   13  A    between atoms: NZ_28  and  CE_29
REMARK   14  A    between atoms: CE_29  and  CD_30
REMARK   15  A    between atoms: CD_30  and  CG_31
REMARK   16  A    between atoms: CG_31  and  CB_32
REMARK   17  A    between atoms: CB_32  and  CA_33
REMARK   18  A    between atoms: CA_33  and  C_35
REMARK   19  A    between atoms: NZ_40  and  CE_41
REMARK   20  A    between atoms: CE_41  and  CD_42
REMARK   21  A    between atoms: CD_42  and  CG_43
REMARK   22  A    between atoms: CG_43  and  CB_44
REMARK   23  A    between atoms: CB_44  and  CA_45
REMARK   24  A    between atoms: CA_45  and  C_47
REMARK   25  A    between atoms: NZ_52  and  CE_53
REMARK   26  A    between atoms: CE_53  and  CD_54
REMARK   27  A    between atoms: CD_54  and  CG_55
REMARK   28  A    between atoms: CG_55  and  CB_56
REMARK   29  A    between atoms: CB_56  and  CA_57
REMARK   30  A    between atoms: CA_57  and  C_59
REMARK   31  A    between atoms: NZ_64  and  CE_65
REMARK   32  A    between atoms: CE_65  and  CD_66
REMARK   33  A    between atoms: CD_66  and  CG_67
REMARK   34  A    between atoms: CG_67  and  CB_68
REMARK   35  A    between atoms: CB_68  and  CA_69
REMARK   36  A    between atoms: CA_69  and  C_71
REMARK                            x       y       z     vdW  Elec       q    Type
REMARK                         _______ _______ _______ _____ _____    ______ ____
ROOT
ATOM      1  CD  ALY E  12      18.337   6.410  10.973  0.00  0.00    +0.000 C 
ENDROOT
BRANCH   1   2
ATOM      2  CE  ALY E  12      16.948   6.462  10.332  0.00  0.00    +0.000 C 
BRANCH   2   6
ATOM      3  OH  ALY E  12      17.068   4.049   8.912  0.00  0.00    +0.000 OA
ATOM      4  CH  ALY E  12      16.267   4.133   9.865  0.00  0.00    +0.000 C 
ATOM      5  CH3 ALY E  12      15.381   2.974  10.256  0.00  0.00    +0.000 C 
ATOM      6  NZ  ALY E  12      16.157   5.295  10.604  0.00  0.00    +0.000 NA
ENDBRANCH   2   6
ENDBRANCH   1   2
BRANCH   1   7
ATOM      7  CG  ALY E  12      19.194   7.559  10.485  0.00  0.00    +0.000 C 
BRANCH   7   8
ATOM      8  CB  ALY E  12      20.526   7.570  11.202  0.00  0.00    +0.000 C 
BRANCH   8   9
ATOM      9  CA  ALY E  12      21.412   8.733  10.728  0.00  0.00    +0.000 C 
ATOM     10  N   ALY E  12      21.884   8.594   9.367  0.00  0.00    +0.000 NA
BRANCH   9  11
ATOM     11  C   ALY E  12      22.583   8.849  11.695  0.00  0.00    +0.000 C 
ATOM     12  O   ALY E  12      22.485   9.263  12.852  0.00  0.00    +0.000 OA
ENDBRANCH   9  11
ENDBRANCH   8   9
ENDBRANCH   7   8
ENDBRANCH   1   7
TORSDOF 6
REMARK  Name = /Users/chinazoemeh/HopeMScP/data/ligands/BRD4-BD1_BRD4-BD1_81_6U74/BRD4-BD1_BRD4-BD1_81_6U74.pdb
REMARK  36 active torsions:
REMARK  status: ('A' for Active; 'I' for Inactive)
REMARK    1  A    between atoms: NZ_4  and  CE_5
REMARK    2  A    between atoms: CE_5  and  CD_6
REMARK    3  A    between atoms: CD_6  and  CG_7
REMARK    4  A    between atoms: CG_7  and  CB_8
REMARK    5  A    between atoms: CB_8  and  CA_9
REMARK    6  A    between atoms: CA_9  and  C_11
REMARK    7  A    between atoms: NZ_16  and  CE_17
REMARK    8  A    between atoms: CE_17  and  CD_18
REMARK    9  A    between atoms: CD_18  and  CG_19
REMARK   10  A    between atoms: CG_19  and  CB_20
REMARK   11  A    between atoms: CB_20  and  CA_21
REMARK   12  A    between atoms: CA_21  and  C_23
REMARK   13  A    between atoms: NZ_28  and  CE_29
REMARK   14  A    between atoms: CE_29  and  CD_30
REMARK   15  A    between atoms: CD_30  and  CG_31
REMARK   16  A    between atoms: CG_31  and  CB_32
REMARK   17  A    between atoms: CB_32  and  CA_33
REMARK   18  A    between atoms: CA_33  and  C_35
REMARK   19  A    between atoms: NZ_40  and  CE_41
REMARK   20  A    between atoms: CE_41  and  CD_42
REMARK   21  A    between atoms: CD_42  and  CG_43
REMARK   22  A    between atoms: CG_43  and  CB_44
REMARK   23  A    between atoms: CB_44  and  CA_45
REMARK   24  A    between atoms: CA_45  and  C_47
REMARK   25  A    between atoms: NZ_52  and  CE_53
REMARK   26  A    between atoms: CE_53  and  CD_54
REMARK   27  A    between atoms: CD_54  and  CG_55
REMARK   28  A    between atoms: CG_55  and  CB_56
REMARK   29  A    between atoms: CB_56  and  CA_57
REMARK   30  A    between atoms: CA_57  and  C_59
REMARK   31  A    between atoms: NZ_64  and  CE_65
REMARK   32  A    between atoms: CE_65  and  CD_66
REMARK   33  A    between atoms: CD_66  and  CG_67
REMARK   34  A    between atoms: CG_67  and  CB_68
REMARK   35  A    between atoms: CB_68  and  CA_69
REMARK   36  A    between atoms: CA_69  and  C_71
REMARK                            x       y       z     vdW  Elec       q    Type
REMARK                         _______ _______ _______ _____ _____    ______ ____
ROOT
ATOM      1  CD  ALY F   5      14.749   2.692  47.369  0.00  0.00    +0.000 C 
ENDROOT
BRANCH   1   2
ATOM      2  CE  ALY F   5      14.949   1.231  46.961  0.00  0.00    +0.000 C 
BRANCH   2   6
ATOM      3  OH  ALY F   5      14.468  -1.468  46.219  0.00  0.00    +0.000 OA
ATOM      4  CH  ALY F   5      13.794  -0.566  45.684  0.00  0.00    +0.000 C 
ATOM      5  CH3 ALY F   5      12.732  -0.877  44.656  0.00  0.00    +0.000 C 
ATOM      6  NZ  ALY F   5      13.985   0.766  46.006  0.00  0.00    +0.000 NA
ENDBRANCH   2   6
ENDBRANCH   1   2
BRANCH   1   7
ATOM      7  CG  ALY F   5      13.432   2.834  48.099  0.00  0.00    +0.000 C 
BRANCH   7   8
ATOM      8  CB  ALY F   5      12.995   4.280  48.153  0.00  0.00    +0.000 C 
BRANCH   8   9
ATOM      9  CA  ALY F   5      13.976   5.144  48.962  0.00  0.00    +0.000 C 
ATOM     10  N   ALY F   5      14.029   4.789  50.370  0.00  0.00    +0.000 NA
BRANCH   9  11
ATOM     11  C   ALY F   5      13.573   6.590  48.700  0.00  0.00    +0.000 C 
ATOM     12  O   ALY F   5      12.618   6.915  47.990  0.00  0.00    +0.000 OA
ENDBRANCH   9  11
ENDBRANCH   8   9
ENDBRANCH   7   8
ENDBRANCH   1   7
TORSDOF 6
REMARK  Name = /Users/chinazoemeh/HopeMScP/data/ligands/BRD4-BD1_BRD4-BD1_81_6U74/BRD4-BD1_BRD4-BD1_81_6U74.pdb
REMARK  36 active torsions:
REMARK  status: ('A' for Active; 'I' for Inactive)
REMARK    1  A    between atoms: NZ_4  and  CE_5
REMARK    2  A    between atoms: CE_5  and  CD_6
REMARK    3  A    between atoms: CD_6  and  CG_7
REMARK    4  A    between atoms: CG_7  and  CB_8
REMARK    5  A    between atoms: CB_8  and  CA_9
REMARK    6  A    between atoms: CA_9  and  C_11
REMARK    7  A    between atoms: NZ_16  and  CE_17
REMARK    8  A    between atoms: CE_17  and  CD_18
REMARK    9  A    between atoms: CD_18  and  CG_19
REMARK   10  A    between atoms: CG_19  and  CB_20
REMARK   11  A    between atoms: CB_20  and  CA_21
REMARK   12  A    between atoms: CA_21  and  C_23
REMARK   13  A    between atoms: NZ_28  and  CE_29
REMARK   14  A    between atoms: CE_29  and  CD_30
REMARK   15  A    between atoms: CD_30  and  CG_31
REMARK   16  A    between atoms: CG_31  and  CB_32
REMARK   17  A    between atoms: CB_32  and  CA_33
REMARK   18  A    between atoms: CA_33  and  C_35
REMARK   19  A    between atoms: NZ_40  and  CE_41
REMARK   20  A    between atoms: CE_41  and  CD_42
REMARK   21  A    between atoms: CD_42  and  CG_43
REMARK   22  A    between atoms: CG_43  and  CB_44
REMARK   23  A    between atoms: CB_44  and  CA_45
REMARK   24  A    between atoms: CA_45  and  C_47
REMARK   25  A    between atoms: NZ_52  and  CE_53
REMARK   26  A    between atoms: CE_53  and  CD_54
REMARK   27  A    between atoms: CD_54  and  CG_55
REMARK   28  A    between atoms: CG_55  and  CB_56
REMARK   29  A    between atoms: CB_56  and  CA_57
REMARK   30  A    between atoms: CA_57  and  C_59
REMARK   31  A    between atoms: NZ_64  and  CE_65
REMARK   32  A    between atoms: CE_65  and  CD_66
REMARK   33  A    between atoms: CD_66  and  CG_67
REMARK   34  A    between atoms: CG_67  and  CB_68
REMARK   35  A    between atoms: CB_68  and  CA_69
REMARK   36  A    between atoms: CA_69  and  C_71
REMARK                            x       y       z     vdW  Elec       q    Type
REMARK                         _______ _______ _______ _____ _____    ______ ____
ROOT
ATOM      1  CD  ALY F   7       7.668   9.197  51.613  0.00  0.00    +0.000 C 
ENDROOT
BRANCH   1   2
ATOM      2  CE  ALY F   7       6.844   8.902  50.358  0.00  0.00    +0.000 C 
BRANCH   2   6
ATOM      3  OH  ALY F   7       5.606   9.739  47.955  0.00  0.00    +0.000 OA
ATOM      4  CH  ALY F   7       5.070  10.031  49.043  0.00  0.00    +0.000 C 
ATOM      5  CH3 ALY F   7       3.779  10.813  49.103  0.00  0.00    +0.000 C 
ATOM      6  NZ  ALY F   7       5.624   9.646  50.251  0.00  0.00    +0.000 NA
ENDBRANCH   2   6
ENDBRANCH   1   2
BRANCH   1   7
ATOM      7  CG  ALY F   7       9.023   9.757  51.237  0.00  0.00    +0.000 C 
BRANCH   7   8
ATOM      8  CB  ALY F   7      10.101   8.808  51.707  0.00  0.00    +0.000 C 
BRANCH   8   9
ATOM      9  CA  ALY F   7      11.495   9.450  51.782  0.00  0.00    +0.000 C 
ATOM     10  N   ALY F   7      12.482   8.879  50.885  0.00  0.00    +0.000 NA
BRANCH   9  11
ATOM     11  C   ALY F   7      11.953   9.307  53.223  0.00  0.00    +0.000 C 
ATOM     12  O   ALY F   7      12.260   8.231  53.737  0.00  0.00    +0.000 OA
ENDBRANCH   9  11
ENDBRANCH   8   9
ENDBRANCH   7   8
ENDBRANCH   1   7
TORSDOF 6
REMARK  Name = /Users/chinazoemeh/HopeMScP/data/ligands/BRD4-BD1_BRD4-BD1_81_6U74/BRD4-BD1_BRD4-BD1_81_6U74.pdb
REMARK  36 active torsions:
REMARK  status: ('A' for Active; 'I' for Inactive)
REMARK    1  A    between atoms: NZ_4  and  CE_5
REMARK    2  A    between atoms: CE_5  and  CD_6
REMARK    3  A    between atoms: CD_6  and  CG_7
REMARK    4  A    between atoms: CG_7  and  CB_8
REMARK    5  A    between atoms: CB_8  and  CA_9
REMARK    6  A    between atoms: CA_9  and  C_11
REMARK    7  A    between atoms: NZ_16  and  CE_17
REMARK    8  A    between atoms: CE_17  and  CD_18
REMARK    9  A    between atoms: CD_18  and  CG_19
REMARK   10  A    between atoms: CG_19  and  CB_20
REMARK   11  A    between atoms: CB_20  and  CA_21
REMARK   12  A    between atoms: CA_21  and  C_23
REMARK   13  A    between atoms: NZ_28  and  CE_29
REMARK   14  A    between atoms: CE_29  and  CD_30
REMARK   15  A    between atoms: CD_30  and  CG_31
REMARK   16  A    between atoms: CG_31  and  CB_32
REMARK   17  A    between atoms: CB_32  and  CA_33
REMARK   18  A    between atoms: CA_33  and  C_35
REMARK   19  A    between atoms: NZ_40  and  CE_41
REMARK   20  A    between atoms: CE_41  and  CD_42
REMARK   21  A    between atoms: CD_42  and  CG_43
REMARK   22  A    between atoms: CG_43  and  CB_44
REMARK   23  A    between atoms: CB_44  and  CA_45
REMARK   24  A    between atoms: CA_45  and  C_47
REMARK   25  A    between atoms: NZ_52  and  CE_53
REMARK   26  A    between atoms: CE_53  and  CD_54
REMARK   27  A    between atoms: CD_54  and  CG_55
REMARK   28  A    between atoms: CG_55  and  CB_56
REMARK   29  A    between atoms: CB_56  and  CA_57
REMARK   30  A    between atoms: CA_57  and  C_59
REMARK   31  A    between atoms: NZ_64  and  CE_65
REMARK   32  A    between atoms: CE_65  and  CD_66
REMARK   33  A    between atoms: CD_66  and  CG_67
REMARK   34  A    between atoms: CG_67  and  CB_68
REMARK   35  A    between atoms: CB_68  and  CA_69
REMARK   36  A    between atoms: CA_69  and  C_71
REMARK                            x       y       z     vdW  Elec       q    Type
REMARK                         _______ _______ _______ _____ _____    ______ ____
ROOT
ATOM      1  CD  ALY F  12       5.664   4.533  67.696  0.00  0.00    +0.000 C 
ENDROOT
BRANCH   1   2
ATOM      2  CE  ALY F  12       4.282   4.567  67.034  0.00  0.00    +0.000 C 
BRANCH   2   6
ATOM      3  OH  ALY F  12       4.397   2.140  65.594  0.00  0.00    +0.000 OA
ATOM      4  CH  ALY F  12       3.586   2.238  66.534  0.00  0.00    +0.000 C 
ATOM      5  CH3 ALY F  12       2.673   1.095  66.913  0.00  0.00    +0.000 C 
ATOM      6  NZ  ALY F  12       3.480   3.402  67.276  0.00  0.00    +0.000 NA
ENDBRANCH   2   6
ENDBRANCH   1   2
BRANCH   1   7
ATOM      7  CG  ALY F  12       6.482   5.714  67.213  0.00  0.00    +0.000 C 
BRANCH   7   8
ATOM      8  CB  ALY F  12       7.818   5.804  67.917  0.00  0.00    +0.000 C 
BRANCH   8   9
ATOM      9  CA  ALY F  12       8.637   7.012  67.425  0.00  0.00    +0.000 C 
ATOM     10  N   ALY F  12       9.128   6.872  66.072  0.00  0.00    +0.000 NA
BRANCH   9  11
ATOM     11  C   ALY F  12       9.791   7.209  68.400  0.00  0.00    +0.000 C 
ATOM     12  O   ALY F  12       9.692   7.793  69.480  0.00  0.00    +0.000 OA
ENDBRANCH   9  11
ENDBRANCH   8   9
ENDBRANCH   7   8
ENDBRANCH   1   7
TORSDOF 6
