REMARK  Name = /Users/chinazoemeh/HopeMScP/data/ligands/BRD4-BD1_BRD4-BD1_39_6FO5/BRD4-BD1_BRD4-BD1_39_6FO5.pdb
REMARK  7 active torsions:
REMARK  status: ('A' for Active; 'I' for Inactive)
REMARK    1  A    between atoms: C11_5  and  C12_10
REMARK    2  A    between atoms: C11_5  and  N2_13
REMARK    3  A    between atoms: C9_8  and  S1_19
REMARK    4  A    between atoms: N2_13  and  S1_19
REMARK    5  A    between atoms: N3_15  and  C18_25
REMARK    6  A    between atoms: C15_22  and  C18_25
REMARK    7  A    between atoms: N6_33  and  C24_36
REMARK                            x       y       z     vdW  Elec       q    Type
REMARK                         _______ _______ _______ _____ _____    ______ ____
ROOT
ATOM      1  C14 DZH A 201      57.868   1.896   4.826  0.00  0.00    +0.000 A 
ATOM      2  C12 DZH A 201      56.375   0.004   4.493  0.00  0.00    +0.000 A 
ATOM      3  C13 DZH A 201      57.023   1.136   4.027  0.00  0.00    +0.000 A 
ATOM      4  C15 DZH A 201      58.142   1.478   6.127  0.00  0.00    +0.000 A 
ATOM      5  C16 DZH A 201      57.494   0.336   6.587  0.00  0.00    +0.000 A 
ATOM      6  C17 DZH A 201      56.646  -0.432   5.783  0.00  0.00    +0.000 A 
ENDROOT
BRANCH   2   7
ATOM      7  C11 DZH A 201      55.394  -0.715   3.626  0.00  0.00    +0.000 C 
BRANCH   7   8
ATOM      8  N2  DZH A 201      55.829  -2.086   3.295  0.00  0.00    +0.000 NA
BRANCH   8   9
ATOM      9  S1  DZH A 201      54.671  -3.161   2.942  0.00  0.00    +0.000 S 
ATOM     10  O2  DZH A 201      53.808  -3.242   4.060  0.00  0.00    +0.000 OA
ATOM     11  O3  DZH A 201      55.381  -4.344   2.489  0.00  0.00    +0.000 OA
BRANCH   9  17
ATOM     12  C4  DZH A 201      50.303  -0.964  -1.797  0.00  0.00    +0.000 C 
ATOM     13  C5  DZH A 201      52.308  -1.586  -0.542  0.00  0.00    +0.000 A 
ATOM     14  C6  DZH A 201      51.889  -1.289   0.760  0.00  0.00    +0.000 A 
ATOM     15  C7  DZH A 201      53.453  -2.330  -0.746  0.00  0.00    +0.000 A 
ATOM     16  C8  DZH A 201      54.164  -2.772   0.286  0.00  0.00    +0.000 A 
ATOM     17  C9  DZH A 201      53.725  -2.542   1.578  0.00  0.00    +0.000 A 
ATOM     18  C10 DZH A 201      52.622  -1.819   1.815  0.00  0.00    +0.000 A 
ATOM     19  N1  DZH A 201      51.613  -1.049  -1.648  0.00  0.00    +0.000 NA
ATOM     20  C3  DZH A 201      49.475  -1.632  -0.769  0.00  0.00    +0.000 C 
ATOM     21  C1  DZH A 201      50.771  -0.318   0.949  0.00  0.00    +0.000 C 
ATOM     22  C2  DZH A 201      49.412  -0.853   0.577  0.00  0.00    +0.000 C 
ATOM     23  O1  DZH A 201      49.782  -0.450  -2.784  0.00  0.00    +0.000 OA
ENDBRANCH   9  17
ENDBRANCH   8   9
ENDBRANCH   7   8
ENDBRANCH   2   7
BRANCH   4  24
ATOM     24  C18 DZH A 201      59.081   2.270   7.005  0.00  0.00    +0.000 C 
BRANCH  24  25
ATOM     25  N3  DZH A 201      58.394   3.377   7.724  0.00  0.00    +0.000 N 
ATOM     26  C19 DZH A 201      58.345   4.594   7.091  0.00  0.00    +0.000 A 
ATOM     27  C20 DZH A 201      57.838   3.237   8.980  0.00  0.00    +0.000 A 
ATOM     28  C21 DZH A 201      57.183   4.259   9.592  0.00  0.00    +0.000 A 
ATOM     29  C22 DZH A 201      57.058   5.544   9.009  0.00  0.00    +0.000 A 
ATOM     30  N4  DZH A 201      57.685   5.605   7.760  0.00  0.00    +0.000 NA
ATOM     31  N5  DZH A 201      57.843   2.110   9.714  0.00  0.00    +0.000 NA
ATOM     32  C23 DZH A 201      57.175   2.469  10.818  0.00  0.00    +0.000 A 
ATOM     33  N6  DZH A 201      56.754   3.730  10.793  0.00  0.00    +0.000 N 
ATOM     34  O4  DZH A 201      56.475   6.532   9.470  0.00  0.00    +0.000 OA
ATOM     35  O5  DZH A 201      58.801   4.805   5.984  0.00  0.00    +0.000 OA
BRANCH  33  36
ATOM     36  C24 DZH A 201      55.855   4.391  11.771  0.00  0.00    +0.000 C 
ATOM     37  C25 DZH A 201      54.423   4.274  11.294  0.00  0.00    +0.000 C 
ENDBRANCH  33  36
ENDBRANCH  24  25
ENDBRANCH   4  24
TORSDOF 7
