REMARK  Name = /Users/chinazoemeh/HopeMScP/data/ligands/BRD4-BD1_BRD4-BD1_90_6KEJ/BRD4-BD1_BRD4-BD1_90_6KEJ.pdb
REMARK  0 active torsions:
REMARK  status: ('A' for Active; 'I' for Inactive)
REMARK                            x       y       z     vdW  Elec       q    Type
REMARK                         _______ _______ _______ _____ _____    ______ ____
ROOT
ATOM      1  C   FMT A 402     -11.211 -17.804  18.464  0.00  0.00    +0.000 C 
ATOM      2  O1  FMT A 402     -12.029 -18.386  17.753  0.00  0.00    +0.000 OA
ATOM      3  O2  FMT A 402     -10.438 -16.936  18.054  0.00  0.00    +0.000 OA
ENDROOT
TORSDOF 0
REMARK  Name = /Users/chinazoemeh/HopeMScP/data/ligands/BRD4-BD1_BRD4-BD1_90_6KEJ/BRD4-BD1_BRD4-BD1_90_6KEJ.pdb
REMARK  0 active torsions:
REMARK  status: ('A' for Active; 'I' for Inactive)
REMARK                            x       y       z     vdW  Elec       q    Type
REMARK                         _______ _______ _______ _____ _____    ______ ____
ROOT
ATOM      1  C   FMT A 403      -8.197  -9.628  30.314  0.00  0.00    +0.000 C 
ATOM      2  O1  FMT A 403      -9.354  -9.441  29.916  0.00  0.00    +0.000 OA
ATOM      3  O2  FMT A 403      -7.634 -10.732  30.380  0.00  0.00    +0.000 OA
ENDROOT
TORSDOF 0
