REMARK  Name = /Users/chinazoemeh/HopeMScP/data/ligands/BRD4-BD1_BRD4-BD1_86_6V0U/BRD4-BD1_BRD4-BD1_86_6V0U.pdb
REMARK  6 active torsions:
REMARK  status: ('A' for Active; 'I' for Inactive)
REMARK    1  A    between atoms: C10_1  and  C11_18
REMARK    2  A    between atoms: C15_3  and  N16_21
REMARK    3  A    between atoms: C17_4  and  O18_22
REMARK    4  A    between atoms: C03_11  and  N04_12
REMARK    5  A    between atoms: N04_12  and  S05_13
REMARK    6  A    between atoms: O18_22  and  C19_23
REMARK                            x       y       z     vdW  Elec       q    Type
REMARK                         _______ _______ _______ _____ _____    ______ ____
ROOT
ATOM      1  N12 BMF A 201     -11.011  -5.104  -0.525  0.00  0.00    +0.000 NA
ATOM      2  C15 BMF A 201     -12.868  -6.007   1.502  0.00  0.00    +0.000 A 
ATOM      3  C22 BMF A 201     -11.618  -6.557   1.363  0.00  0.00    +0.000 A 
ATOM      4  C26 BMF A 201     -12.148  -2.909  -2.178  0.00  0.00    +0.000 C 
ATOM      5  C11 BMF A 201     -10.693  -6.068   0.357  0.00  0.00    +0.000 A 
ATOM      6  N13 BMF A 201     -12.273  -4.600  -0.335  0.00  0.00    +0.000 N 
ATOM      7  C14 BMF A 201     -13.220  -4.987   0.616  0.00  0.00    +0.000 A 
ATOM      8  N23 BMF A 201     -14.332  -4.219   0.423  0.00  0.00    +0.000 NA
ATOM      9  N24 BMF A 201     -14.087  -3.371  -0.591  0.00  0.00    +0.000 NA
ATOM     10  C25 BMF A 201     -12.850  -3.576  -1.086  0.00  0.00    +0.000 A 
ENDROOT
BRANCH   5  11
ATOM     11  C10 BMF A 201      -9.389  -6.739   0.205  0.00  0.00    +0.000 A 
ATOM     12  C28 BMF A 201      -7.508  -7.990   1.055  0.00  0.00    +0.000 A 
ATOM     13  C01 BMF A 201      -5.698  -8.910  -0.456  0.00  0.00    +0.000 C 
ATOM     14  C02 BMF A 201      -6.980  -8.158  -0.231  0.00  0.00    +0.000 A 
ATOM     15  C03 BMF A 201      -7.686  -7.624  -1.298  0.00  0.00    +0.000 A 
ATOM     16  C09 BMF A 201      -8.882  -6.927  -1.082  0.00  0.00    +0.000 A 
ATOM     17  C27 BMF A 201      -8.708  -7.299   1.285  0.00  0.00    +0.000 A 
BRANCH  15  18
ATOM     18  N04 BMF A 201      -7.153  -7.803  -2.626  0.00  0.00    +0.000 NA
BRANCH  18  19
ATOM     19  S05 BMF A 201      -8.053  -7.853  -4.012  0.00  0.00    +0.000 S 
ATOM     20  C06 BMF A 201      -8.224  -6.234  -4.520  0.00  0.00    +0.000 C 
ATOM     21  O07 BMF A 201      -9.331  -8.410  -3.744  0.00  0.00    +0.000 OA
ATOM     22  O08 BMF A 201      -7.255  -8.523  -4.971  0.00  0.00    +0.000 OA
ENDBRANCH  18  19
ENDBRANCH  15  18
ENDBRANCH   5  11
BRANCH   2  24
ATOM     23  C17 BMF A 201     -13.755  -7.571   3.233  0.00  0.00    +0.000 C 
ATOM     24  N16 BMF A 201     -13.856  -6.397   2.460  0.00  0.00    +0.000 NA
ATOM     25  O21 BMF A 201     -12.848  -8.319   3.258  0.00  0.00    +0.000 OA
BRANCH  23  26
ATOM     26  O18 BMF A 201     -14.921  -7.648   3.957  0.00  0.00    +0.000 OA
BRANCH  26  28
ATOM     27  C20 BMF A 201     -16.410  -9.399   4.789  0.00  0.00    +0.000 C 
ATOM     28  C19 BMF A 201     -14.977  -8.840   4.766  0.00  0.00    +0.000 C 
ENDBRANCH  26  28
ENDBRANCH  23  26
ENDBRANCH   2  24
TORSDOF 6
