REMARK  Name = /Users/chinazoemeh/HopeMScP/data/ligands/BRD4-BD1_BRD4-BD1_2_8B96/BRD4-BD1_BRD4-BD1_2_8B96.pdb
REMARK  2 active torsions:
REMARK  status: ('A' for Active; 'I' for Inactive)
REMARK    1  A    between atoms: C1_1  and  C2_3
REMARK    2  A    between atoms: C1_5  and  C2_7
REMARK                            x       y       z     vdW  Elec       q    Type
REMARK                         _______ _______ _______ _____ _____    ______ ____
ROOT
ATOM      1  C1  EDO A 202      14.094   7.476  30.021  0.00  0.00    +0.000 C 
ATOM      2  O1  EDO A 202      15.122   7.872  30.934  0.00  0.00    +0.000 OA
ENDROOT
BRANCH   1   3
ATOM      3  C2  EDO A 202      14.414   6.106  29.441  0.00  0.00    +0.000 C 
ATOM      4  O2  EDO A 202      15.497   6.209  28.506  0.00  0.00    +0.000 OA
ENDBRANCH   1   3
TORSDOF 1
REMARK  Name = /Users/chinazoemeh/HopeMScP/data/ligands/BRD4-BD1_BRD4-BD1_2_8B96/BRD4-BD1_BRD4-BD1_2_8B96.pdb
REMARK  2 active torsions:
REMARK  status: ('A' for Active; 'I' for Inactive)
REMARK    1  A    between atoms: C1_1  and  C2_3
REMARK    2  A    between atoms: C1_5  and  C2_7
REMARK                            x       y       z     vdW  Elec       q    Type
REMARK                         _______ _______ _______ _____ _____    ______ ____
ROOT
ATOM      1  C1  EDO A 204     -12.289   6.425  33.185  0.00  0.00    +0.000 C 
ATOM      2  O1  EDO A 204     -13.282   6.796  32.222  0.00  0.00    +0.000 OA
ENDROOT
BRANCH   1   3
ATOM      3  C2  EDO A 204     -12.494   4.970  33.591  0.00  0.00    +0.000 C 
ATOM      4  O2  EDO A 204     -12.351   4.116  32.448  0.00  0.00    +0.000 OA
ENDBRANCH   1   3
TORSDOF 1
