REMARK  Name = /Users/chinazoemeh/HopeMScP/data/ligands/BRD4-BD1_BRD4-BD1_99_7YMG/BRD4-BD1_BRD4-BD1_99_7YMG.pdb
REMARK  0 active torsions:
REMARK  status: ('A' for Active; 'I' for Inactive)
REMARK                            x       y       z     vdW  Elec       q    Type
REMARK                         _______ _______ _______ _____ _____    ______ ____
ROOT
ATOM      1  C   FMT A 203       5.118   3.680 -23.508  0.00  0.00    +0.000 C 
ATOM      2  O1  FMT A 203       6.204   3.288 -23.940  0.00  0.00    +0.000 OA
ATOM      3  O2  FMT A 203       4.808   3.708 -22.313  0.00  0.00    +0.000 OA
ENDROOT
TORSDOF 0
REMARK  Name = /Users/chinazoemeh/HopeMScP/data/ligands/BRD4-BD1_BRD4-BD1_99_7YMG/BRD4-BD1_BRD4-BD1_99_7YMG.pdb
REMARK  0 active torsions:
REMARK  status: ('A' for Active; 'I' for Inactive)
REMARK                            x       y       z     vdW  Elec       q    Type
REMARK                         _______ _______ _______ _____ _____    ______ ____
ROOT
ATOM      1  C   FMT A 204     -18.908  -1.156   6.676  0.00  0.00    +0.000 C 
ATOM      2  O1  FMT A 204     -19.399  -1.120   5.550  0.00  0.00    +0.000 OA
ATOM      3  O2  FMT A 204     -17.689  -1.266   6.851  0.00  0.00    +0.000 OA
ENDROOT
TORSDOF 0
REMARK  Name = /Users/chinazoemeh/HopeMScP/data/ligands/BRD4-BD1_BRD4-BD1_99_7YMG/BRD4-BD1_BRD4-BD1_99_7YMG.pdb
REMARK  0 active torsions:
REMARK  status: ('A' for Active; 'I' for Inactive)
REMARK                            x       y       z     vdW  Elec       q    Type
REMARK                         _______ _______ _______ _____ _____    ______ ____
ROOT
ATOM      1  C   FMT B 203      -2.281  -5.378 -29.982  0.00  0.00    +0.000 C 
ATOM      2  O1  FMT B 203      -2.522  -4.232 -29.628  0.00  0.00    +0.000 OA
ATOM      3  O2  FMT B 203      -1.159  -5.861 -30.170  0.00  0.00    +0.000 OA
ENDROOT
TORSDOF 0
