REMARK  Name = /Users/chinazoemeh/HopeMScP/data/ligands/BRD4-BD1_BRD4-BD1_51_6XV3/BRD4-BD1_BRD4-BD1_51_6XV3.pdb
REMARK  38 active torsions:
REMARK  status: ('A' for Active; 'I' for Inactive)
REMARK    1  A    between atoms: N3_1  and  C10_6
REMARK    2  A    between atoms: C8_5  and  N17_21
REMARK    3  A    between atoms: C10_6  and  C11_17
REMARK    4  A    between atoms: C10_6  and  C23_25
REMARK    5  A    between atoms: C24_11  and  C18_22
REMARK    6  A    between atoms: C1_13  and  C27_27
REMARK    7  A    between atoms: N29_29  and  C36_36
REMARK    8  A    between atoms: C34_34  and  C35_35
REMARK    9  A    between atoms: C36_36  and  C37_37
REMARK   10  A    between atoms: C36_36  and  C38_38
REMARK   11  A    between atoms: N3_72  and  C10_77
REMARK   12  A    between atoms: C8_76  and  N17_92
REMARK   13  A    between atoms: C10_77  and  C11_88
REMARK   14  A    between atoms: C10_77  and  C23_96
REMARK   15  A    between atoms: C24_82  and  C18_93
REMARK   16  A    between atoms: C1_84  and  C27_98
REMARK   17  A    between atoms: N29_100  and  C36_107
REMARK   18  A    between atoms: C34_105  and  C35_106
REMARK   19  A    between atoms: C36_107  and  C37_108
REMARK   20  A    between atoms: C36_107  and  C38_109
REMARK   21  A    between atoms: N3_143  and  C10_148
REMARK   22  A    between atoms: C10_148  and  C11_159
REMARK   23  A    between atoms: C10_148  and  C23_167
REMARK   24  A    between atoms: C24_153  and  C18_164
REMARK   25  A    between atoms: C1_155  and  C27_169
REMARK   26  A    between atoms: N29_171  and  C36_178
REMARK   27  A    between atoms: C34_176  and  C35_177
REMARK   28  A    between atoms: C36_178  and  C37_179
REMARK   29  A    between atoms: C36_178  and  C38_180
REMARK   30  A    between atoms: N3_214  and  C10_219
REMARK   31  A    between atoms: C10_219  and  C11_230
REMARK   32  A    between atoms: C10_219  and  C23_238
REMARK   33  A    between atoms: C24_224  and  C18_235
REMARK   34  A    between atoms: C1_226  and  C27_240
REMARK   35  A    between atoms: N29_242  and  C36_249
REMARK   36  A    between atoms: C34_247  and  C35_248
REMARK   37  A    between atoms: C36_249  and  C37_250
REMARK   38  A    between atoms: C36_249  and  C38_251
REMARK                            x       y       z     vdW  Elec       q    Type
REMARK                         _______ _______ _______ _____ _____    ______ ____
ROOT
ATOM      1  N3  O2B A4000      -2.668 -15.736  49.303  0.00  0.00    +0.000 N 
ATOM      2  C4  O2B A4000      -2.372 -14.897  48.246  0.00  0.00    +0.000 A 
ATOM      3  C5  O2B A4000      -2.990 -15.458  47.110  0.00  0.00    +0.000 A 
ATOM      4  C6  O2B A4000      -2.881 -14.762  45.898  0.00  0.00    +0.000 A 
ATOM      5  C8  O2B A4000      -1.448 -13.204  46.869  0.00  0.00    +0.000 A 
ATOM      6  C1  O2B A4000      -3.483 -16.728  48.765  0.00  0.00    +0.000 A 
ATOM      7  N2  O2B A4000      -3.686 -16.597  47.476  0.00  0.00    +0.000 NA
ATOM      8  N7  O2B A4000      -2.098 -13.688  45.778  0.00  0.00    +0.000 NA
ATOM      9  C9  O2B A4000      -1.603 -13.740  48.163  0.00  0.00    +0.000 A 
ENDROOT
BRANCH   6  12
ATOM     10  C26 O2B A4000      -4.971 -18.674  48.876  0.00  0.00    +0.000 A 
ATOM     11  C25 O2B A4000      -4.179 -19.019  51.511  0.00  0.00    +0.000 A 
ATOM     12  C27 O2B A4000      -4.063 -17.873  49.496  0.00  0.00    +0.000 A 
ATOM     13  N28 O2B A4000      -3.678 -18.039  50.800  0.00  0.00    +0.000 NA
ATOM     14  N29 O2B A4000      -3.832 -19.193  52.804  0.00  0.00    +0.000 N 
ATOM     15  N30 O2B A4000      -5.487 -19.715  49.620  0.00  0.00    +0.000 N 
ATOM     16  C31 O2B A4000      -5.140 -19.933  50.927  0.00  0.00    +0.000 A 
ATOM     17  N32 O2B A4000      -5.782 -20.983  51.396  0.00  0.00    +0.000 NA
ATOM     18  N33 O2B A4000      -6.580 -21.440  50.388  0.00  0.00    +0.000 NA
ATOM     19  C34 O2B A4000      -6.387 -20.696  49.315  0.00  0.00    +0.000 A 
ATOM     20  C35 O2B A4000      -6.994 -20.870  47.966  0.00  0.00    +0.000 C 
ATOM     21  H61 O2B A4000      -4.390 -19.857  53.340  0.00  0.00    +0.000 HD
BRANCH  14  22
ATOM     22  C36 O2B A4000      -3.049 -18.194  53.541  0.00  0.00    +0.000 C 
ATOM     23  C37 O2B A4000      -3.914 -17.016  54.002  0.00  0.00    +0.000 C 
ATOM     24  C38 O2B A4000      -2.328 -18.878  54.700  0.00  0.00    +0.000 C 
ENDBRANCH  14  22
ENDBRANCH   6  12
BRANCH   5  28
ATOM     25  C21 O2B A4000       1.685 -11.348  46.835  0.00  0.00    +0.000 C 
ATOM     26  C22 O2B A4000       0.505 -11.923  47.581  0.00  0.00    +0.000 C 
ATOM     27  C24 O2B A4000      -2.155 -10.601  45.488  0.00  0.00    +0.000 C 
ATOM     28  N17 O2B A4000      -0.610 -12.120  46.673  0.00  0.00    +0.000 N 
ATOM     29  C18 O2B A4000      -0.781 -11.261  45.493  0.00  0.00    +0.000 C 
ATOM     30  C19 O2B A4000       0.305 -10.147  45.351  0.00  0.00    +0.000 C 
ATOM     31  O20 O2B A4000       1.323 -10.084  46.330  0.00  0.00    +0.000 OA
ENDBRANCH   5  28
BRANCH   1  32
ATOM     32  C10 O2B A4000      -2.454 -15.398  50.733  0.00  0.00    +0.000 C 
ATOM     33  C23 O2B A4000      -0.982 -15.182  51.053  0.00  0.00    +0.000 C 
BRANCH  32  36
ATOM     34  C13 O2B A4000      -5.703 -13.476  51.238  0.00  0.00    +0.000 A 
ATOM     35  C15 O2B A4000      -3.898 -12.083  52.049  0.00  0.00    +0.000 A 
ATOM     36  C11 O2B A4000      -3.406 -14.272  51.118  0.00  0.00    +0.000 A 
ATOM     37  C12 O2B A4000      -4.778 -14.459  50.894  0.00  0.00    +0.000 A 
ATOM     38  C14 O2B A4000      -5.262 -12.282  51.821  0.00  0.00    +0.000 A 
ATOM     39  C16 O2B A4000      -2.977 -13.077  51.701  0.00  0.00    +0.000 A 
ENDBRANCH  32  36
ENDBRANCH   1  32
TORSDOF 5
REMARK  Name = /Users/chinazoemeh/HopeMScP/data/ligands/BRD4-BD1_BRD4-BD1_51_6XV3/BRD4-BD1_BRD4-BD1_51_6XV3.pdb
REMARK  38 active torsions:
REMARK  status: ('A' for Active; 'I' for Inactive)
REMARK    1  A    between atoms: N3_1  and  C10_6
REMARK    2  A    between atoms: C8_5  and  N17_21
REMARK    3  A    between atoms: C10_6  and  C11_17
REMARK    4  A    between atoms: C10_6  and  C23_25
REMARK    5  A    between atoms: C24_11  and  C18_22
REMARK    6  A    between atoms: C1_13  and  C27_27
REMARK    7  A    between atoms: N29_29  and  C36_36
REMARK    8  A    between atoms: C34_34  and  C35_35
REMARK    9  A    between atoms: C36_36  and  C37_37
REMARK   10  A    between atoms: C36_36  and  C38_38
REMARK   11  A    between atoms: N3_72  and  C10_77
REMARK   12  A    between atoms: C8_76  and  N17_92
REMARK   13  A    between atoms: C10_77  and  C11_88
REMARK   14  A    between atoms: C10_77  and  C23_96
REMARK   15  A    between atoms: C24_82  and  C18_93
REMARK   16  A    between atoms: C1_84  and  C27_98
REMARK   17  A    between atoms: N29_100  and  C36_107
REMARK   18  A    between atoms: C34_105  and  C35_106
REMARK   19  A    between atoms: C36_107  and  C37_108
REMARK   20  A    between atoms: C36_107  and  C38_109
REMARK   21  A    between atoms: N3_143  and  C10_148
REMARK   22  A    between atoms: C10_148  and  C11_159
REMARK   23  A    between atoms: C10_148  and  C23_167
REMARK   24  A    between atoms: C24_153  and  C18_164
REMARK   25  A    between atoms: C1_155  and  C27_169
REMARK   26  A    between atoms: N29_171  and  C36_178
REMARK   27  A    between atoms: C34_176  and  C35_177
REMARK   28  A    between atoms: C36_178  and  C37_179
REMARK   29  A    between atoms: C36_178  and  C38_180
REMARK   30  A    between atoms: N3_214  and  C10_219
REMARK   31  A    between atoms: C10_219  and  C11_230
REMARK   32  A    between atoms: C10_219  and  C23_238
REMARK   33  A    between atoms: C24_224  and  C18_235
REMARK   34  A    between atoms: C1_226  and  C27_240
REMARK   35  A    between atoms: N29_242  and  C36_249
REMARK   36  A    between atoms: C34_247  and  C35_248
REMARK   37  A    between atoms: C36_249  and  C37_250
REMARK   38  A    between atoms: C36_249  and  C38_251
REMARK                            x       y       z     vdW  Elec       q    Type
REMARK                         _______ _______ _______ _____ _____    ______ ____
ROOT
ATOM      1  N3  O2B B 201      -0.221  -8.357  21.048  0.00  0.00    +0.000 N 
ATOM      2  C4  O2B B 201       0.146  -7.570  19.970  0.00  0.00    +0.000 A 
ATOM      3  C5  O2B B 201      -0.422  -8.188  18.839  0.00  0.00    +0.000 A 
ATOM      4  C6  O2B B 201      -0.284  -7.552  17.600  0.00  0.00    +0.000 A 
ATOM      5  C8  O2B B 201       1.130  -5.964  18.525  0.00  0.00    +0.000 A 
ATOM      6  C1  O2B B 201      -1.009  -9.372  20.514  0.00  0.00    +0.000 A 
ATOM      7  N2  O2B B 201      -1.150  -9.298  19.212  0.00  0.00    +0.000 NA
ATOM      8  N7  O2B B 201       0.492  -6.486  17.443  0.00  0.00    +0.000 NA
ATOM      9  C9  O2B B 201       0.935  -6.421  19.841  0.00  0.00    +0.000 A 
ENDROOT
BRANCH   6  12
ATOM     10  C26 O2B B 201      -2.607 -11.222  20.653  0.00  0.00    +0.000 A 
ATOM     11  C25 O2B B 201      -1.993 -11.432  23.356  0.00  0.00    +0.000 A 
ATOM     12  C27 O2B B 201      -1.691 -10.433  21.282  0.00  0.00    +0.000 A 
ATOM     13  N28 O2B B 201      -1.387 -10.529  22.619  0.00  0.00    +0.000 NA
ATOM     14  N29 O2B B 201      -1.777 -11.534  24.679  0.00  0.00    +0.000 N 
ATOM     15  N30 O2B B 201      -3.224 -12.193  21.427  0.00  0.00    +0.000 N 
ATOM     16  C31 O2B B 201      -2.951 -12.348  22.760  0.00  0.00    +0.000 A 
ATOM     17  N32 O2B B 201      -3.640 -13.359  23.251  0.00  0.00    +0.000 NA
ATOM     18  N33 O2B B 201      -4.410 -13.847  22.233  0.00  0.00    +0.000 NA
ATOM     19  C34 O2B B 201      -4.141 -13.167  21.135  0.00  0.00    +0.000 A 
ATOM     20  C35 O2B B 201      -4.739 -13.391  19.796  0.00  0.00    +0.000 C 
ATOM     21  H61 O2B B 201      -2.367 -12.193  25.189  0.00  0.00    +0.000 HD
BRANCH  14  22
ATOM     22  C36 O2B B 201      -0.913 -10.614  25.417  0.00  0.00    +0.000 C 
ATOM     23  C37 O2B B 201      -1.675  -9.390  25.935  0.00  0.00    +0.000 C 
ATOM     24  C38 O2B B 201      -0.199 -11.384  26.519  0.00  0.00    +0.000 C 
ENDBRANCH  14  22
ENDBRANCH   6  12
BRANCH   5  28
ATOM     25  C21 O2B B 201       4.015  -3.638  18.687  0.00  0.00    +0.000 C 
ATOM     26  C22 O2B B 201       2.855  -4.405  19.302  0.00  0.00    +0.000 C 
ATOM     27  C24 O2B B 201       0.549  -2.944  17.710  0.00  0.00    +0.000 C 
ATOM     28  N17 O2B B 201       1.997  -4.915  18.248  0.00  0.00    +0.000 N 
ATOM     29  C18 O2B B 201       1.599  -3.940  17.221  0.00  0.00    +0.000 C 
ATOM     30  C19 O2B B 201       2.846  -3.215  16.736  0.00  0.00    +0.000 C 
ATOM     31  O20 O2B B 201       3.558  -2.627  17.812  0.00  0.00    +0.000 OA
ENDBRANCH   5  28
BRANCH   1  32
ATOM     32  C10 O2B B 201      -0.046  -7.997  22.471  0.00  0.00    +0.000 C 
ATOM     33  C23 O2B B 201       1.423  -7.782  22.801  0.00  0.00    +0.000 C 
BRANCH  32  36
ATOM     34  C13 O2B B 201      -3.304  -6.042  22.784  0.00  0.00    +0.000 A 
ATOM     35  C15 O2B B 201      -1.638  -4.899  24.094  0.00  0.00    +0.000 A 
ATOM     36  C11 O2B B 201      -1.021  -6.883  22.842  0.00  0.00    +0.000 A 
ATOM     37  C12 O2B B 201      -2.345  -6.966  22.383  0.00  0.00    +0.000 A 
ATOM     38  C14 O2B B 201      -2.953  -5.002  23.648  0.00  0.00    +0.000 A 
ATOM     39  C16 O2B B 201      -0.674  -5.828  23.692  0.00  0.00    +0.000 A 
ENDBRANCH  32  36
ENDBRANCH   1  32
TORSDOF 5
REMARK  Name = /Users/chinazoemeh/HopeMScP/data/ligands/BRD4-BD1_BRD4-BD1_51_6XV3/BRD4-BD1_BRD4-BD1_51_6XV3.pdb
REMARK  38 active torsions:
REMARK  status: ('A' for Active; 'I' for Inactive)
REMARK    1  A    between atoms: N3_1  and  C10_6
REMARK    2  A    between atoms: C8_5  and  N17_21
REMARK    3  A    between atoms: C10_6  and  C11_17
REMARK    4  A    between atoms: C10_6  and  C23_25
REMARK    5  A    between atoms: C24_11  and  C18_22
REMARK    6  A    between atoms: C1_13  and  C27_27
REMARK    7  A    between atoms: N29_29  and  C36_36
REMARK    8  A    between atoms: C34_34  and  C35_35
REMARK    9  A    between atoms: C36_36  and  C37_37
REMARK   10  A    between atoms: C36_36  and  C38_38
REMARK   11  A    between atoms: N3_72  and  C10_77
REMARK   12  A    between atoms: C8_76  and  N17_92
REMARK   13  A    between atoms: C10_77  and  C11_88
REMARK   14  A    between atoms: C10_77  and  C23_96
REMARK   15  A    between atoms: C24_82  and  C18_93
REMARK   16  A    between atoms: C1_84  and  C27_98
REMARK   17  A    between atoms: N29_100  and  C36_107
REMARK   18  A    between atoms: C34_105  and  C35_106
REMARK   19  A    between atoms: C36_107  and  C37_108
REMARK   20  A    between atoms: C36_107  and  C38_109
REMARK   21  A    between atoms: N3_143  and  C10_148
REMARK   22  A    between atoms: C10_148  and  C11_159
REMARK   23  A    between atoms: C10_148  and  C23_167
REMARK   24  A    between atoms: C24_153  and  C18_164
REMARK   25  A    between atoms: C1_155  and  C27_169
REMARK   26  A    between atoms: N29_171  and  C36_178
REMARK   27  A    between atoms: C34_176  and  C35_177
REMARK   28  A    between atoms: C36_178  and  C37_179
REMARK   29  A    between atoms: C36_178  and  C38_180
REMARK   30  A    between atoms: N3_214  and  C10_219
REMARK   31  A    between atoms: C10_219  and  C11_230
REMARK   32  A    between atoms: C10_219  and  C23_238
REMARK   33  A    between atoms: C24_224  and  C18_235
REMARK   34  A    between atoms: C1_226  and  C27_240
REMARK   35  A    between atoms: N29_242  and  C36_249
REMARK   36  A    between atoms: C34_247  and  C35_248
REMARK   37  A    between atoms: C36_249  and  C37_250
REMARK   38  A    between atoms: C36_249  and  C38_251
REMARK                            x       y       z     vdW  Elec       q    Type
REMARK                         _______ _______ _______ _____ _____    ______ ____
ROOT
ATOM      1  N3  O2B C 201      19.473 -47.840  -5.516  0.00  0.00    +0.000 N 
ATOM      2  C4  O2B C 201      19.791 -48.719  -4.492  0.00  0.00    +0.000 A 
ATOM      3  C5  O2B C 201      19.176 -48.188  -3.342  0.00  0.00    +0.000 A 
ATOM      4  C6  O2B C 201      19.298 -48.879  -2.135  0.00  0.00    +0.000 A 
ATOM      5  C8  O2B C 201      20.619 -50.490  -3.154  0.00  0.00    +0.000 A 
ATOM      6  C21 O2B C 201      22.710 -53.576  -3.795  0.00  0.00    +0.000 C 
ATOM      7  C22 O2B C 201      21.897 -52.321  -4.128  0.00  0.00    +0.000 C 
ATOM      8  C24 O2B C 201      19.574 -53.121  -1.967  0.00  0.00    +0.000 C 
ATOM      9  C1  O2B C 201      18.674 -46.858  -4.940  0.00  0.00    +0.000 A 
ATOM     10  N2  O2B C 201      18.507 -47.021  -3.648  0.00  0.00    +0.000 NA
ATOM     11  N7  O2B C 201      20.023 -49.985  -2.041  0.00  0.00    +0.000 NA
ATOM     12  C9  O2B C 201      20.509 -49.917  -4.432  0.00  0.00    +0.000 A 
ATOM     13  N17 O2B C 201      21.363 -51.647  -2.949  0.00  0.00    +0.000 N 
ATOM     14  C18 O2B C 201      20.954 -52.479  -1.807  0.00  0.00    +0.000 C 
ATOM     15  C19 O2B C 201      22.001 -53.547  -1.567  0.00  0.00    +0.000 C 
ATOM     16  O20 O2B C 201      22.183 -54.335  -2.728  0.00  0.00    +0.000 OA
ENDROOT
BRANCH   9  19
ATOM     17  C26 O2B C 201      17.246 -44.865  -4.967  0.00  0.00    +0.000 A 
ATOM     18  C25 O2B C 201      17.941 -44.477  -7.630  0.00  0.00    +0.000 A 
ATOM     19  C27 O2B C 201      18.111 -45.673  -5.642  0.00  0.00    +0.000 A 
ATOM     20  N28 O2B C 201      18.447 -45.488  -6.963  0.00  0.00    +0.000 NA
ATOM     21  N29 O2B C 201      18.223 -44.272  -8.931  0.00  0.00    +0.000 N 
ATOM     22  N30 O2B C 201      16.729 -43.782  -5.657  0.00  0.00    +0.000 N 
ATOM     23  C31 O2B C 201      17.042 -43.556  -6.972  0.00  0.00    +0.000 A 
ATOM     24  N32 O2B C 201      16.410 -42.493  -7.418  0.00  0.00    +0.000 NA
ATOM     25  N33 O2B C 201      15.656 -42.022  -6.389  0.00  0.00    +0.000 NA
ATOM     26  C34 O2B C 201      15.845 -42.786  -5.331  0.00  0.00    +0.000 A 
ATOM     27  C35 O2B C 201      15.227 -42.607  -3.991  0.00  0.00    +0.000 C 
ATOM     28  H61 O2B C 201      17.697 -43.540  -9.400  0.00  0.00    +0.000 HD
BRANCH  21  29
ATOM     29  C36 O2B C 201      19.014 -45.219  -9.715  0.00  0.00    +0.000 C 
ATOM     30  C37 O2B C 201      18.224 -46.479 -10.074  0.00  0.00    +0.000 C 
ATOM     31  C38 O2B C 201      19.592 -44.522 -10.953  0.00  0.00    +0.000 C 
ENDBRANCH  21  29
ENDBRANCH   9  19
BRANCH   1  32
ATOM     32  C10 O2B C 201      19.654 -48.126  -6.957  0.00  0.00    +0.000 C 
ATOM     33  C23 O2B C 201      21.122 -48.322  -7.301  0.00  0.00    +0.000 C 
BRANCH  32  36
ATOM     34  C13 O2B C 201      16.356 -49.898  -7.571  0.00  0.00    +0.000 A 
ATOM     35  C15 O2B C 201      18.123 -51.499  -8.017  0.00  0.00    +0.000 A 
ATOM     36  C11 O2B C 201      18.694 -49.244  -7.326  0.00  0.00    +0.000 A 
ATOM     37  C12 O2B C 201      17.321 -48.950  -7.246  0.00  0.00    +0.000 A 
ATOM     38  C14 O2B C 201      16.763 -51.181  -7.963  0.00  0.00    +0.000 A 
ATOM     39  C16 O2B C 201      19.087 -50.535  -7.691  0.00  0.00    +0.000 A 
ENDBRANCH  32  36
ENDBRANCH   1  32
TORSDOF 4
REMARK  Name = /Users/chinazoemeh/HopeMScP/data/ligands/BRD4-BD1_BRD4-BD1_51_6XV3/BRD4-BD1_BRD4-BD1_51_6XV3.pdb
REMARK  38 active torsions:
REMARK  status: ('A' for Active; 'I' for Inactive)
REMARK    1  A    between atoms: N3_1  and  C10_6
REMARK    2  A    between atoms: C8_5  and  N17_21
REMARK    3  A    between atoms: C10_6  and  C11_17
REMARK    4  A    between atoms: C10_6  and  C23_25
REMARK    5  A    between atoms: C24_11  and  C18_22
REMARK    6  A    between atoms: C1_13  and  C27_27
REMARK    7  A    between atoms: N29_29  and  C36_36
REMARK    8  A    between atoms: C34_34  and  C35_35
REMARK    9  A    between atoms: C36_36  and  C37_37
REMARK   10  A    between atoms: C36_36  and  C38_38
REMARK   11  A    between atoms: N3_72  and  C10_77
REMARK   12  A    between atoms: C8_76  and  N17_92
REMARK   13  A    between atoms: C10_77  and  C11_88
REMARK   14  A    between atoms: C10_77  and  C23_96
REMARK   15  A    between atoms: C24_82  and  C18_93
REMARK   16  A    between atoms: C1_84  and  C27_98
REMARK   17  A    between atoms: N29_100  and  C36_107
REMARK   18  A    between atoms: C34_105  and  C35_106
REMARK   19  A    between atoms: C36_107  and  C37_108
REMARK   20  A    between atoms: C36_107  and  C38_109
REMARK   21  A    between atoms: N3_143  and  C10_148
REMARK   22  A    between atoms: C10_148  and  C11_159
REMARK   23  A    between atoms: C10_148  and  C23_167
REMARK   24  A    between atoms: C24_153  and  C18_164
REMARK   25  A    between atoms: C1_155  and  C27_169
REMARK   26  A    between atoms: N29_171  and  C36_178
REMARK   27  A    between atoms: C34_176  and  C35_177
REMARK   28  A    between atoms: C36_178  and  C37_179
REMARK   29  A    between atoms: C36_178  and  C38_180
REMARK   30  A    between atoms: N3_214  and  C10_219
REMARK   31  A    between atoms: C10_219  and  C11_230
REMARK   32  A    between atoms: C10_219  and  C23_238
REMARK   33  A    between atoms: C24_224  and  C18_235
REMARK   34  A    between atoms: C1_226  and  C27_240
REMARK   35  A    between atoms: N29_242  and  C36_249
REMARK   36  A    between atoms: C34_247  and  C35_248
REMARK   37  A    between atoms: C36_249  and  C37_250
REMARK   38  A    between atoms: C36_249  and  C38_251
REMARK                            x       y       z     vdW  Elec       q    Type
REMARK                         _______ _______ _______ _____ _____    ______ ____
ROOT
ATOM      1  N3  O2B D 201      20.378 -54.931  23.405  0.00  0.00    +0.000 N 
ATOM      2  C4  O2B D 201      20.783 -55.729  24.458  0.00  0.00    +0.000 A 
ATOM      3  C5  O2B D 201      20.146 -55.213  25.602  0.00  0.00    +0.000 A 
ATOM      4  C6  O2B D 201      20.384 -55.854  26.826  0.00  0.00    +0.000 A 
ATOM      5  C8  O2B D 201      21.764 -57.420  25.790  0.00  0.00    +0.000 A 
ATOM      6  C21 O2B D 201      24.228 -60.107  25.088  0.00  0.00    +0.000 C 
ATOM      7  C22 O2B D 201      22.889 -59.389  24.832  0.00  0.00    +0.000 C 
ATOM      8  C24 O2B D 201      20.983 -59.794  27.518  0.00  0.00    +0.000 C 
ATOM      9  C1  O2B D 201      19.504 -53.998  23.949  0.00  0.00    +0.000 A 
ATOM     10  N2  O2B D 201      19.358 -54.126  25.249  0.00  0.00    +0.000 NA
ATOM     11  N7  O2B D 201      21.195 -56.907  26.916  0.00  0.00    +0.000 NA
ATOM     12  C9  O2B D 201      21.587 -56.864  24.512  0.00  0.00    +0.000 A 
ATOM     13  N17 O2B D 201      22.544 -58.552  25.973  0.00  0.00    +0.000 N 
ATOM     14  C18 O2B D 201      22.401 -59.285  27.240  0.00  0.00    +0.000 C 
ATOM     15  C19 O2B D 201      23.346 -60.498  27.197  0.00  0.00    +0.000 C 
ATOM     16  O20 O2B D 201      24.516 -60.219  26.469  0.00  0.00    +0.000 OA
ENDROOT
BRANCH   9  19
ATOM     17  C26 O2B D 201      17.921 -52.119  23.753  0.00  0.00    +0.000 A 
ATOM     18  C25 O2B D 201      18.626 -51.922  21.069  0.00  0.00    +0.000 A 
ATOM     19  C27 O2B D 201      18.837 -52.931  23.157  0.00  0.00    +0.000 A 
ATOM     20  N28 O2B D 201      19.175 -52.833  21.832  0.00  0.00    +0.000 NA
ATOM     21  N29 O2B D 201      18.943 -51.829  19.766  0.00  0.00    +0.000 N 
ATOM     22  N30 O2B D 201      17.348 -51.137  22.965  0.00  0.00    +0.000 N 
ATOM     23  C31 O2B D 201      17.658 -51.012  21.634  0.00  0.00    +0.000 A 
ATOM     24  N32 O2B D 201      17.002 -50.012  21.101  0.00  0.00    +0.000 NA
ATOM     25  N33 O2B D 201      16.213 -49.496  22.080  0.00  0.00    +0.000 NA
ATOM     26  C34 O2B D 201      16.430 -50.148  23.208  0.00  0.00    +0.000 A 
ATOM     27  C35 O2B D 201      15.802 -49.852  24.531  0.00  0.00    +0.000 C 
ATOM     28  H61 O2B D 201      18.424 -51.164  19.211  0.00  0.00    +0.000 HD
BRANCH  21  29
ATOM     29  C36 O2B D 201      19.864 -52.746  19.099  0.00  0.00    +0.000 C 
ATOM     30  C37 O2B D 201      19.195 -54.067  18.696  0.00  0.00    +0.000 C 
ATOM     31  C38 O2B D 201      20.537 -52.037  17.930  0.00  0.00    +0.000 C 
ENDBRANCH  21  29
ENDBRANCH   9  19
BRANCH   1  32
ATOM     32  C10 O2B D 201      20.685 -55.239  21.990  0.00  0.00    +0.000 C 
ATOM     33  C23 O2B D 201      22.179 -55.168  21.714  0.00  0.00    +0.000 C 
BRANCH  32  36
ATOM     34  C13 O2B D 201      17.823 -57.686  21.569  0.00  0.00    +0.000 A 
ATOM     35  C15 O2B D 201      19.844 -58.836  20.881  0.00  0.00    +0.000 A 
ATOM     36  C11 O2B D 201      19.971 -56.532  21.635  0.00  0.00    +0.000 A 
ATOM     37  C12 O2B D 201      18.579 -56.551  21.842  0.00  0.00    +0.000 A 
ATOM     38  C14 O2B D 201      18.462 -58.836  21.086  0.00  0.00    +0.000 A 
ATOM     39  C16 O2B D 201      20.601 -57.689  21.158  0.00  0.00    +0.000 A 
ENDBRANCH  32  36
ENDBRANCH   1  32
TORSDOF 4
