REMARK  Name = /Users/chinazoemeh/HopeMScP/data/ligands/BRD4-BD1_BRD4-BD1_57_5U2E/BRD4-BD1_BRD4-BD1_57_5U2E.pdb
REMARK  10 active torsions:
REMARK  status: ('A' for Active; 'I' for Inactive)
REMARK    1  A    between atoms: C02_8  and  O03_9
REMARK    2  A    between atoms: O03_9  and  C04_10
REMARK    3  A    between atoms: C04_10  and  C06_12
REMARK    4  A    between atoms: C09_15  and  C12_17
REMARK    5  A    between atoms: C18_21  and  N22_24
REMARK    6  A    between atoms: C02_35  and  O03_36
REMARK    7  A    between atoms: O03_36  and  C04_37
REMARK    8  A    between atoms: C04_37  and  C06_39
REMARK    9  A    between atoms: C09_42  and  C12_44
REMARK   10  A    between atoms: C18_48  and  N22_51
REMARK                            x       y       z     vdW  Elec       q    Type
REMARK                         _______ _______ _______ _____ _____    ______ ____
ROOT
ATOM      1  C13 837 A 201     -31.523  14.752  -6.317  0.00  0.00    +0.000 A 
ATOM      2  C15 837 A 201     -32.103  16.695  -4.809  0.00  0.00    +0.000 A 
ATOM      3  C20 837 A 201     -32.253  17.906  -4.017  0.00  0.00    +0.000 C 
ATOM      4  C12 837 A 201     -32.707  14.428  -5.552  0.00  0.00    +0.000 A 
ATOM      5  S14 837 A 201     -31.003  16.277  -5.944  0.00  0.00    +0.000 S 
ATOM      6  C16 837 A 201     -33.028  15.611  -4.635  0.00  0.00    +0.000 A 
ATOM      7  O17 837 A 201     -34.154  15.674  -3.694  0.00  0.00    +0.000 OA
ATOM      8  C18 837 A 201     -34.279  16.880  -2.895  0.00  0.00    +0.000 C 
ATOM      9  C19 837 A 201     -33.203  17.920  -2.945  0.00  0.00    +0.000 C 
ATOM     10  O21 837 A 201     -31.575  18.861  -4.221  0.00  0.00    +0.000 OA
ENDROOT
BRANCH   4  15
ATOM     11  C10 837 A 201     -34.058  12.759  -4.294  0.00  0.00    +0.000 A 
ATOM     12  C06 837 A 201     -35.067  10.841  -5.310  0.00  0.00    +0.000 A 
ATOM     13  C07 837 A 201     -34.544  11.231  -6.533  0.00  0.00    +0.000 A 
ATOM     14  C08 837 A 201     -33.777  12.390  -6.652  0.00  0.00    +0.000 A 
ATOM     15  C09 837 A 201     -33.550  13.158  -5.525  0.00  0.00    +0.000 A 
ATOM     16  C11 837 A 201     -34.827  11.608  -4.174  0.00  0.00    +0.000 A 
BRANCH  12  17
ATOM     17  C04 837 A 201     -35.912   9.568  -5.193  0.00  0.00    +0.000 C 
ATOM     18  O05 837 A 201     -36.156   9.099  -4.124  0.00  0.00    +0.000 OA
BRANCH  17  19
ATOM     19  O03 837 A 201     -36.434   8.943  -6.327  0.00  0.00    +0.000 OA
BRANCH  19  21
ATOM     20  C01 837 A 201     -38.648   8.324  -7.071  0.00  0.00    +0.000 C 
ATOM     21  C02 837 A 201     -37.564   8.171  -6.000  0.00  0.00    +0.000 C 
ENDBRANCH  19  21
ENDBRANCH  17  19
ENDBRANCH  12  17
ENDBRANCH   4  15
BRANCH   8  24
ATOM     22  C24 837 A 201     -36.423  17.546   0.129  0.00  0.00    +0.000 C 
ATOM     23  C26 837 A 201     -36.711  15.338  -0.363  0.00  0.00    +0.000 C 
ATOM     24  N22 837 A 201     -34.986  16.660  -1.672  0.00  0.00    +0.000 NA
ATOM     25  C23 837 A 201     -35.110  17.675  -0.613  0.00  0.00    +0.000 C 
ATOM     26  O25 837 A 201     -36.502  16.265   0.637  0.00  0.00    +0.000 OA
ATOM     27  C27 837 A 201     -35.609  15.356  -1.414  0.00  0.00    +0.000 C 
ENDBRANCH   8  24
TORSDOF 5
REMARK  Name = /Users/chinazoemeh/HopeMScP/data/ligands/BRD4-BD1_BRD4-BD1_57_5U2E/BRD4-BD1_BRD4-BD1_57_5U2E.pdb
REMARK  10 active torsions:
REMARK  status: ('A' for Active; 'I' for Inactive)
REMARK    1  A    between atoms: C02_8  and  O03_9
REMARK    2  A    between atoms: O03_9  and  C04_10
REMARK    3  A    between atoms: C04_10  and  C06_12
REMARK    4  A    between atoms: C09_15  and  C12_17
REMARK    5  A    between atoms: C18_21  and  N22_24
REMARK    6  A    between atoms: C02_35  and  O03_36
REMARK    7  A    between atoms: O03_36  and  C04_37
REMARK    8  A    between atoms: C04_37  and  C06_39
REMARK    9  A    between atoms: C09_42  and  C12_44
REMARK   10  A    between atoms: C18_48  and  N22_51
REMARK                            x       y       z     vdW  Elec       q    Type
REMARK                         _______ _______ _______ _____ _____    ______ ____
ROOT
ATOM      1  C13 837 B 201       8.810   1.803 -25.169  0.00  0.00    +0.000 A 
ATOM      2  C15 837 B 201       8.532   3.681 -26.850  0.00  0.00    +0.000 A 
ATOM      3  C20 837 B 201       8.292   4.868 -27.674  0.00  0.00    +0.000 C 
ATOM      4  C12 837 B 201       9.444   1.450 -26.422  0.00  0.00    +0.000 A 
ATOM      5  S14 837 B 201       8.139   3.303 -25.319  0.00  0.00    +0.000 S 
ATOM      6  C16 837 B 201       9.277   2.590 -27.409  0.00  0.00    +0.000 A 
ATOM      7  O17 837 B 201       9.790   2.598 -28.781  0.00  0.00    +0.000 OA
ATOM      8  C18 837 B 201       9.776   3.866 -29.482  0.00  0.00    +0.000 C 
ATOM      9  C19 837 B 201       8.775   4.884 -29.031  0.00  0.00    +0.000 C 
ATOM     10  O21 837 B 201       7.713   5.802 -27.211  0.00  0.00    +0.000 OA
ENDROOT
BRANCH   4  15
ATOM     11  C10 837 B 201      11.024  -0.369 -25.834  0.00  0.00    +0.000 A 
ATOM     12  C06 837 B 201      11.610  -2.082 -27.375  0.00  0.00    +0.000 A 
ATOM     13  C07 837 B 201      10.795  -1.517 -28.346  0.00  0.00    +0.000 A 
ATOM     14  C08 837 B 201      10.075  -0.367 -28.053  0.00  0.00    +0.000 A 
ATOM     15  C09 837 B 201      10.202   0.192 -26.792  0.00  0.00    +0.000 A 
ATOM     16  C11 837 B 201      11.730  -1.514 -26.129  0.00  0.00    +0.000 A 
BRANCH  12  17
ATOM     17  C04 837 B 201      12.415  -3.347 -27.667  0.00  0.00    +0.000 C 
ATOM     18  O05 837 B 201      12.429  -3.808 -28.758  0.00  0.00    +0.000 OA
BRANCH  17  19
ATOM     19  O03 837 B 201      13.154  -3.933 -26.641  0.00  0.00    +0.000 OA
BRANCH  19  21
ATOM     20  C01 837 B 201      15.019  -2.582 -26.043  0.00  0.00    +0.000 C 
ATOM     21  C02 837 B 201      14.539  -3.807 -26.825  0.00  0.00    +0.000 C 
ENDBRANCH  19  21
ENDBRANCH  17  19
ENDBRANCH  12  17
ENDBRANCH   4  15
BRANCH   8  24
ATOM     22  C24 837 B 201      10.044   4.288 -33.282  0.00  0.00    +0.000 C 
ATOM     23  C26 837 B 201      11.210   2.418 -32.704  0.00  0.00    +0.000 C 
ATOM     24  N22 837 B 201       9.913   3.585 -30.882  0.00  0.00    +0.000 NA
ATOM     25  C23 837 B 201       9.352   4.441 -31.936  0.00  0.00    +0.000 C 
ATOM     26  O25 837 B 201      10.345   2.976 -33.621  0.00  0.00    +0.000 OA
ATOM     27  C27 837 B 201      10.567   2.331 -31.320  0.00  0.00    +0.000 C 
ENDBRANCH   8  24
TORSDOF 5
