REMARK  Name = /Users/chinazoemeh/HopeMScP/data/ligands/BRD4-BD1_BRD4-BD1_84_7Q3F/BRD4-BD1_BRD4-BD1_84_7Q3F.pdb
REMARK  6 active torsions:
REMARK  status: ('A' for Active; 'I' for Inactive)
REMARK    1  A    between atoms: C13_9  and  C12_24
REMARK    2  A    between atoms: C17_11  and  S2_28
REMARK    3  A    between atoms: C17_11  and  C18_29
REMARK    4  A    between atoms: C1_16  and  S2_28
REMARK    5  A    between atoms: N2_19  and  C12_24
REMARK    6  A    between atoms: N4_31  and  C19_32
REMARK                            x       y       z     vdW  Elec       q    Type
REMARK                         _______ _______ _______ _____ _____    ______ ____
ROOT
ATOM      1  N1  8M6 A 501      16.014   4.308   7.045  0.00  0.00    +0.000 NA
ATOM      2  N3  8M6 A 501      12.730   6.150  11.873  0.00  0.00    +0.000 N 
ATOM      3  C4  8M6 A 501      14.857   2.440   8.733  0.00  0.00    +0.000 A 
ATOM      4  C5  8M6 A 501      14.218   5.930  10.077  0.00  0.00    +0.000 A 
ATOM      5  C6  8M6 A 501      14.076   4.543  10.159  0.00  0.00    +0.000 A 
ATOM      6  C7  8M6 A 501      13.651   6.900  11.055  0.00  0.00    +0.000 C 
ATOM      7  C8  8M6 A 501      13.187   4.873  12.443  0.00  0.00    +0.000 C 
ATOM      8  C10 8M6 A 501      11.405   6.672  12.039  0.00  0.00    +0.000 C 
ATOM      9  C1  8M6 A 501      16.070   2.993   6.828  0.00  0.00    +0.000 A 
ATOM     10  C2  8M6 A 501      15.362   4.716   8.127  0.00  0.00    +0.000 A 
ATOM     11  C3  8M6 A 501      14.751   3.835   9.013  0.00  0.00    +0.000 A 
ATOM     12  N2  8M6 A 501      15.529   2.078   7.631  0.00  0.00    +0.000 N 
ATOM     13  S1  8M6 A 501      15.103   6.323   8.666  0.00  0.00    +0.000 S 
ATOM     14  C9  8M6 A 501      13.327   3.876  11.320  0.00  0.00    +0.000 C 
ATOM     15  C11 8M6 A 501      10.434   5.926  12.905  0.00  0.00    +0.000 C 
ATOM     16  O1  8M6 A 501      11.114   7.746  11.526  0.00  0.00    +0.000 OA
ATOM     17  O4  8M6 A 501      14.265   1.423   9.556  0.00  0.00    +0.000 OA
ENDROOT
BRANCH  12  18
ATOM     18  C12 8M6 A 501      15.587   0.672   7.337  0.00  0.00    +0.000 C 
BRANCH  18  19
ATOM     19  C13 8M6 A 501      14.296   0.546   6.446  0.00  0.00    +0.000 A 
ATOM     20  C15 8M6 A 501      12.231   0.119   5.660  0.00  0.00    +0.000 A 
ATOM     21  O2  8M6 A 501      14.209   0.999   5.268  0.00  0.00    +0.000 OA
ATOM     22  C14 8M6 A 501      13.024   0.765   4.754  0.00  0.00    +0.000 A 
ATOM     23  C16 8M6 A 501      13.062  -0.019   6.800  0.00  0.00    +0.000 A 
ENDBRANCH  18  19
ENDBRANCH  12  18
BRANCH   9  24
ATOM     24  S2  8M6 A 501      16.995   2.580   5.347  0.00  0.00    +0.000 S 
BRANCH  24  25
ATOM     25  C17 8M6 A 501      18.700   3.058   5.660  0.00  0.00    +0.000 C 
BRANCH  25  26
ATOM     26  C18 8M6 A 501      18.882   4.554   5.268  0.00  0.00    +0.000 C 
ATOM     27  O3  8M6 A 501      18.508   4.954   4.194  0.00  0.00    +0.000 OA
ATOM     28  N4  8M6 A 501      19.491   5.440   6.209  0.00  0.00    +0.000 NA
BRANCH  28  33
ATOM     29  C20 8M6 A 501      18.640   7.801   5.813  0.00  0.00    +0.000 A 
ATOM     30  C21 8M6 A 501      20.146   9.559   5.477  0.00  0.00    +0.000 A 
ATOM     31  C22 8M6 A 501      21.278   8.674   5.601  0.00  0.00    +0.000 A 
ATOM     32  C24 8M6 A 501      17.156   7.363   5.918  0.00  0.00    +0.000 C 
ATOM     33  C19 8M6 A 501      19.715   6.868   5.943  0.00  0.00    +0.000 A 
ATOM     34  N5  8M6 A 501      18.907   9.084   5.592  0.00  0.00    +0.000 NA
ATOM     35  C23 8M6 A 501      21.044   7.332   5.838  0.00  0.00    +0.000 A 
ENDBRANCH  28  33
ENDBRANCH  25  26
ENDBRANCH  24  25
ENDBRANCH   9  24
TORSDOF 6
