REMARK  Name = /Users/chinazoemeh/HopeMScP/data/ligands/BRD4-BD1_BRD4-BD1_76_6KEC/BRD4-BD1_BRD4-BD1_76_6KEC.pdb
REMARK  0 active torsions:
REMARK  status: ('A' for Active; 'I' for Inactive)
REMARK                            x       y       z     vdW  Elec       q    Type
REMARK                         _______ _______ _______ _____ _____    ______ ____
ROOT
ATOM      1  C   FMT A 402     -11.437 -18.183  17.911  0.00  0.00    +0.000 C 
ATOM      2  O1  FMT A 402     -10.851 -17.105  17.949  0.00  0.00    +0.000 OA
ATOM      3  O2  FMT A 402     -12.621 -18.312  17.600  0.00  0.00    +0.000 OA
ENDROOT
TORSDOF 0
REMARK  Name = /Users/chinazoemeh/HopeMScP/data/ligands/BRD4-BD1_BRD4-BD1_76_6KEC/BRD4-BD1_BRD4-BD1_76_6KEC.pdb
REMARK  0 active torsions:
REMARK  status: ('A' for Active; 'I' for Inactive)
REMARK                            x       y       z     vdW  Elec       q    Type
REMARK                         _______ _______ _______ _____ _____    ______ ____
ROOT
ATOM      1  C   FMT A 403     -24.162  13.929   9.226  0.00  0.00    +0.000 C 
ATOM      2  O1  FMT A 403     -23.031  14.319   9.504  0.00  0.00    +0.000 OA
ATOM      3  O2  FMT A 403     -24.546  12.756   9.294  0.00  0.00    +0.000 OA
ENDROOT
TORSDOF 0
REMARK  Name = /Users/chinazoemeh/HopeMScP/data/ligands/BRD4-BD1_BRD4-BD1_76_6KEC/BRD4-BD1_BRD4-BD1_76_6KEC.pdb
REMARK  0 active torsions:
REMARK  status: ('A' for Active; 'I' for Inactive)
REMARK                            x       y       z     vdW  Elec       q    Type
REMARK                         _______ _______ _______ _____ _____    ______ ____
ROOT
ATOM      1  C   FMT A 404      -2.649   9.576   6.366  0.00  0.00    +0.000 C 
ATOM      2  O1  FMT A 404      -3.178   9.125   5.346  0.00  0.00    +0.000 OA
ATOM      3  O2  FMT A 404      -3.151   9.539   7.497  0.00  0.00    +0.000 OA
ENDROOT
TORSDOF 0
REMARK  Name = /Users/chinazoemeh/HopeMScP/data/ligands/BRD4-BD1_BRD4-BD1_76_6KEC/BRD4-BD1_BRD4-BD1_76_6KEC.pdb
REMARK  0 active torsions:
REMARK  status: ('A' for Active; 'I' for Inactive)
REMARK                            x       y       z     vdW  Elec       q    Type
REMARK                         _______ _______ _______ _____ _____    ______ ____
ROOT
ATOM      1  C   FMT A 405      -7.139 -23.047   2.061  0.00  0.00    +0.000 C 
ATOM      2  O1  FMT A 405      -7.794 -23.279   1.042  0.00  0.00    +0.000 OA
ATOM      3  O2  FMT A 405      -6.032 -22.503   2.062  0.00  0.00    +0.000 OA
ENDROOT
TORSDOF 0
