REMARK  Name = /Users/chinazoemeh/HopeMScP/data/ligands/BRD4-BD1_BRD4-BD1_37_8GPZ/BRD4-BD1_BRD4-BD1_37_8GPZ.pdb
REMARK  0 active torsions:
REMARK  status: ('A' for Active; 'I' for Inactive)
REMARK                            x       y       z     vdW  Elec       q    Type
REMARK                         _______ _______ _______ _____ _____    ______ ____
ROOT
ATOM      1  C   FMT A 201     -20.720  17.711  97.570  0.00  0.00    +0.000 C 
ATOM      2  O1  FMT A 201     -21.342  16.658  97.645  0.00  0.00    +0.000 OA
ATOM      3  O2  FMT A 201     -19.516  17.778  97.328  0.00  0.00    +0.000 OA
ENDROOT
TORSDOF 0
REMARK  Name = /Users/chinazoemeh/HopeMScP/data/ligands/BRD4-BD1_BRD4-BD1_37_8GPZ/BRD4-BD1_BRD4-BD1_37_8GPZ.pdb
REMARK  0 active torsions:
REMARK  status: ('A' for Active; 'I' for Inactive)
REMARK                            x       y       z     vdW  Elec       q    Type
REMARK                         _______ _______ _______ _____ _____    ______ ____
ROOT
ATOM      1  C   FMT A 202      -8.150 -14.066  89.447  0.00  0.00    +0.000 C 
ATOM      2  O1  FMT A 202      -9.326 -14.277  89.715  0.00  0.00    +0.000 OA
ATOM      3  O2  FMT A 202      -7.592 -12.976  89.583  0.00  0.00    +0.000 OA
ENDROOT
TORSDOF 0
