REMARK  Name = /Users/chinazoemeh/HopeMScP/data/ligands/BRD4-BD1_BRD4-BD1_58_7MRB/BRD4-BD1_BRD4-BD1_58_7MRB.pdb
REMARK  6 active torsions:
REMARK  status: ('A' for Active; 'I' for Inactive)
REMARK    1  A    between atoms: C09_9  and  C10_10
REMARK    2  A    between atoms: C13_13  and  N02_26
REMARK    3  A    between atoms: C16_16  and  O02_28
REMARK    4  A    between atoms: C17_17  and  O02_28
REMARK    5  A    between atoms: C23_23  and  S01_31
REMARK    6  A    between atoms: N02_26  and  S01_31
REMARK                            x       y       z     vdW  Elec       q    Type
REMARK                         _______ _______ _______ _____ _____    ______ ____
ROOT
ATOM      1  C10 N49 A 201       8.783  -6.230   0.262  0.00  0.00    +0.000 A 
ATOM      2  C12 N49 A 201       8.271  -6.726   1.467  0.00  0.00    +0.000 A 
ATOM      3  C13 N49 A 201       7.029  -7.337   1.549  0.00  0.00    +0.000 A 
ATOM      4  C14 N49 A 201       6.242  -7.486   0.388  0.00  0.00    +0.000 A 
ATOM      5  C15 N49 A 201       6.763  -7.016  -0.830  0.00  0.00    +0.000 A 
ATOM      6  C16 N49 A 201       7.969  -6.349  -0.880  0.00  0.00    +0.000 A 
ENDROOT
BRANCH   1  15
ATOM      7  C01 N49 A 201      12.039  -7.783  -2.232  0.00  0.00    +0.000 A 
ATOM      8  C02 N49 A 201      13.288  -7.180  -2.214  0.00  0.00    +0.000 A 
ATOM      9  C03 N49 A 201      13.483  -6.064  -1.403  0.00  0.00    +0.000 A 
ATOM     10  C04 N49 A 201      12.427  -5.532  -0.617  0.00  0.00    +0.000 A 
ATOM     11  C05 N49 A 201      11.162  -6.156  -0.635  0.00  0.00    +0.000 A 
ATOM     12  C06 N49 A 201      11.003  -7.287  -1.436  0.00  0.00    +0.000 A 
ATOM     13  C07 N49 A 201      12.649  -4.394   0.188  0.00  0.00    +0.000 A 
ATOM     14  C08 N49 A 201      10.374  -4.534   0.937  0.00  0.00    +0.000 A 
ATOM     15  C09 N49 A 201      10.107  -5.640   0.186  0.00  0.00    +0.000 A 
ATOM     16  C11 N49 A 201      11.783  -2.771   1.826  0.00  0.00    +0.000 C 
ATOM     17  N01 N49 A 201      11.604  -3.931   0.972  0.00  0.00    +0.000 N 
ATOM     18  O01 N49 A 201      13.752  -3.765   0.219  0.00  0.00    +0.000 OA
ENDBRANCH   1  15
BRANCH   3  19
ATOM     19  N02 N49 A 201       6.473  -7.849   2.730  0.00  0.00    +0.000 NA
BRANCH  19  22
ATOM     20  O03 N49 A 201       8.640  -8.218   4.031  0.00  0.00    +0.000 OA
ATOM     21  O04 N49 A 201       6.401  -8.581   5.125  0.00  0.00    +0.000 OA
ATOM     22  S01 N49 A 201       7.233  -7.792   4.188  0.00  0.00    +0.000 S 
BRANCH  22  23
ATOM     23  C23 N49 A 201       7.227  -6.097   4.730  0.00  0.00    +0.000 C 
ATOM     24  C24 N49 A 201       5.800  -5.566   4.801  0.00  0.00    +0.000 C 
ENDBRANCH  22  23
ENDBRANCH  19  22
ENDBRANCH   3  19
BRANCH   6  25
ATOM     25  O02 N49 A 201       8.523  -5.891  -2.110  0.00  0.00    +0.000 OA
BRANCH  25  26
ATOM     26  C17 N49 A 201       7.776  -5.279  -3.046  0.00  0.00    +0.000 A 
ATOM     27  C18 N49 A 201       6.604  -4.623  -2.781  0.00  0.00    +0.000 A 
ATOM     28  C19 N49 A 201       5.909  -3.968  -3.808  0.00  0.00    +0.000 A 
ATOM     29  C20 N49 A 201       6.412  -3.964  -5.137  0.00  0.00    +0.000 A 
ATOM     30  C21 N49 A 201       7.645  -4.610  -5.371  0.00  0.00    +0.000 A 
ATOM     31  C22 N49 A 201       8.336  -5.279  -4.334  0.00  0.00    +0.000 A 
ATOM     32 CL01 N49 A 201       5.559  -3.214  -6.394  0.00  0.00    +0.000 Cl
ENDBRANCH  25  26
ENDBRANCH   6  25
TORSDOF 6
