REMARK  Name = /Users/chinazoemeh/HopeMScP/data/ligands/BRD4-BD1_BRD4-BD1_67_6YQP/BRD4-BD1_BRD4-BD1_67_6YQP.pdb
REMARK  3 active torsions:
REMARK  status: ('A' for Active; 'I' for Inactive)
REMARK    1  A    between atoms: C1_1  and  C2_3
REMARK    2  A    between atoms: C1_5  and  C2_7
REMARK    3  A    between atoms: C1_9  and  C2_11
REMARK                            x       y       z     vdW  Elec       q    Type
REMARK                         _______ _______ _______ _____ _____    ______ ____
ROOT
ATOM      1  C1  EDO A 201      42.674  19.511   6.112  0.00  0.00    +0.000 C 
ATOM      2  O1  EDO A 201      43.070  18.407   6.932  0.00  0.00    +0.000 OA
ENDROOT
BRANCH   1   3
ATOM      3  C2  EDO A 201      41.702  20.396   6.878  0.00  0.00    +0.000 C 
ATOM      4  O2  EDO A 201      40.522  19.661   7.215  0.00  0.00    +0.000 OA
ENDBRANCH   1   3
TORSDOF 1
REMARK  Name = /Users/chinazoemeh/HopeMScP/data/ligands/BRD4-BD1_BRD4-BD1_67_6YQP/BRD4-BD1_BRD4-BD1_67_6YQP.pdb
REMARK  3 active torsions:
REMARK  status: ('A' for Active; 'I' for Inactive)
REMARK    1  A    between atoms: C1_1  and  C2_3
REMARK    2  A    between atoms: C1_5  and  C2_7
REMARK    3  A    between atoms: C1_9  and  C2_11
REMARK                            x       y       z     vdW  Elec       q    Type
REMARK                         _______ _______ _______ _____ _____    ______ ____
ROOT
ATOM      1  C1  EDO A 202      25.750  32.670  19.617  0.00  0.00    +0.000 C 
ATOM      2  O1  EDO A 202      26.103  33.152  20.909  0.00  0.00    +0.000 OA
ENDROOT
BRANCH   1   3
ATOM      3  C2  EDO A 202      24.452  33.344  19.202  0.00  0.00    +0.000 C 
ATOM      4  O2  EDO A 202      24.379  33.325  17.780  0.00  0.00    +0.000 OA
ENDBRANCH   1   3
TORSDOF 1
REMARK  Name = /Users/chinazoemeh/HopeMScP/data/ligands/BRD4-BD1_BRD4-BD1_67_6YQP/BRD4-BD1_BRD4-BD1_67_6YQP.pdb
REMARK  3 active torsions:
REMARK  status: ('A' for Active; 'I' for Inactive)
REMARK    1  A    between atoms: C1_1  and  C2_3
REMARK    2  A    between atoms: C1_5  and  C2_7
REMARK    3  A    between atoms: C1_9  and  C2_11
REMARK                            x       y       z     vdW  Elec       q    Type
REMARK                         _______ _______ _______ _____ _____    ______ ____
ROOT
ATOM      1  C1  EDO A 203      20.437  35.630  -0.155  0.00  0.00    +0.000 C 
ATOM      2  O1  EDO A 203      19.455  35.340   0.850  0.00  0.00    +0.000 OA
ENDROOT
BRANCH   1   3
ATOM      3  C2  EDO A 203      20.660  37.133  -0.222  0.00  0.00    +0.000 C 
ATOM      4  O2  EDO A 203      21.091  37.580   1.067  0.00  0.00    +0.000 OA
ENDBRANCH   1   3
TORSDOF 1
