REMARK  Name = /Users/chinazoemeh/HopeMScP/data/ligands/BRD4-BD1_BRD4-BD1_92_6G0E/BRD4-BD1_BRD4-BD1_92_6G0E.pdb
REMARK  0 active torsions:
REMARK  status: ('A' for Active; 'I' for Inactive)
REMARK                            x       y       z     vdW  Elec       q    Type
REMARK                         _______ _______ _______ _____ _____    ______ ____
ROOT
ATOM      1  C   FMT A 202      50.950  41.090  94.758  0.00  0.00    +0.000 C 
ATOM      2  O1  FMT A 202      51.058  41.299  93.528  0.00  0.00    +0.000 OA
ATOM      3  O2  FMT A 202      50.929  39.969  95.316  0.00  0.00    +0.000 OA
ENDROOT
TORSDOF 0
REMARK  Name = /Users/chinazoemeh/HopeMScP/data/ligands/BRD4-BD1_BRD4-BD1_92_6G0E/BRD4-BD1_BRD4-BD1_92_6G0E.pdb
REMARK  0 active torsions:
REMARK  status: ('A' for Active; 'I' for Inactive)
REMARK                            x       y       z     vdW  Elec       q    Type
REMARK                         _______ _______ _______ _____ _____    ______ ____
ROOT
ATOM      1  C   FMT A 203      57.506  43.926  85.531  0.00  0.00    +0.000 C 
ATOM      2  O1  FMT A 203      58.153  42.930  85.924  0.00  0.00    +0.000 OA
ATOM      3  O2  FMT A 203      56.557  44.475  86.140  0.00  0.00    +0.000 OA
ENDROOT
TORSDOF 0
