REMARK  Name = /Users/chinazoemeh/HopeMScP/data/ligands/BRD4-BD1_BRD4-BD1_14_6LIM/BRD4-BD1_BRD4-BD1_14_6LIM.pdb
REMARK  7 active torsions:
REMARK  status: ('A' for Active; 'I' for Inactive)
REMARK    1  A    between atoms: C10_1  and  C08_14
REMARK    2  A    between atoms: C20_3  and  C21_4
REMARK    3  A    between atoms: C01_9  and  N02_27
REMARK    4  A    between atoms: C08_14  and  C09_15
REMARK    5  A    between atoms: C08_14  and  N07_28
REMARK    6  A    between atoms: C11_16  and  C12_17
REMARK    7  A    between atoms: C14_18  and  N15_29
REMARK                            x       y       z     vdW  Elec       q    Type
REMARK                         _______ _______ _______ _____ _____    ______ ____
ROOT
ATOM      1  C20 EE9 A 201      -8.219  -9.873   2.100  0.00  0.00    +0.000 A 
ATOM      2  C16 EE9 A 201      -8.097  -9.187  -0.081  0.00  0.00    +0.000 A 
ATOM      3  C18 EE9 A 201      -6.690 -10.848   0.575  0.00  0.00    +0.000 A 
ATOM      4  C19 EE9 A 201      -7.229 -10.810   1.859  0.00  0.00    +0.000 A 
ATOM      5  N15 EE9 A 201      -8.567  -8.338  -1.127  0.00  0.00    +0.000 N 
ATOM      6  N17 EE9 A 201      -7.135 -10.041  -0.375  0.00  0.00    +0.000 NA
ATOM      7  N31 EE9 A 201      -8.627  -9.102   1.123  0.00  0.00    +0.000 NA
ATOM      8 H151 EE9 A 201      -8.115  -8.298  -1.857  0.00  0.00    +0.000 HD
ENDROOT
BRANCH   5  17
ATOM      9  C13 EE9 A 201     -10.780  -7.695  -0.038  0.00  0.00    +0.000 A 
ATOM     10  C01 EE9 A 201     -13.084  -3.662  -1.709  0.00  0.00    +0.000 C 
ATOM     11  C03 EE9 A 201     -11.976  -5.858  -1.017  0.00  0.00    +0.000 A 
ATOM     12  C04 EE9 A 201     -10.990  -5.729  -2.008  0.00  0.00    +0.000 A 
ATOM     13  C05 EE9 A 201      -9.894  -6.570  -1.975  0.00  0.00    +0.000 A 
ATOM     14  C06 EE9 A 201     -11.899  -6.834  -0.057  0.00  0.00    +0.000 A 
ATOM     15  C11 EE9 A 201     -14.277  -6.699   0.338  0.00  0.00    +0.000 C 
ATOM     16  C12 EE9 A 201     -14.729  -7.721  -0.715  0.00  0.00    +0.000 C 
ATOM     17  C14 EE9 A 201      -9.780  -7.535  -1.015  0.00  0.00    +0.000 A 
ATOM     18  C32 EE9 A 201     -14.330  -5.295  -0.377  0.00  0.00    +0.000 C 
ATOM     19  N02 EE9 A 201     -13.133  -4.952  -1.049  0.00  0.00    +0.000 N 
ATOM     20  N07 EE9 A 201     -12.974  -6.958   0.901  0.00  0.00    +0.000 N 
ATOM     21  O33 EE9 A 201     -15.241  -4.547  -0.389  0.00  0.00    +0.000 OA
BRANCH  20  23
ATOM     22  C10 EE9 A 201     -13.138  -9.272   1.653  0.00  0.00    +0.000 C 
ATOM     23  C08 EE9 A 201     -12.776  -7.843   2.061  0.00  0.00    +0.000 C 
ATOM     24  C09 EE9 A 201     -13.536  -7.354   3.279  0.00  0.00    +0.000 C 
ENDBRANCH  20  23
ENDBRANCH   5  17
BRANCH   1  25
ATOM     25  C21 EE9 A 201      -8.896  -9.708   3.451  0.00  0.00    +0.000 A 
ATOM     26  C22 EE9 A 201      -9.160  -8.413   3.992  0.00  0.00    +0.000 A 
ATOM     27  C24 EE9 A 201      -9.067  -5.962   3.951  0.00  0.00    +0.000 A 
ATOM     28  C26 EE9 A 201     -10.087  -7.123   5.810  0.00  0.00    +0.000 A 
ATOM     29  C28 EE9 A 201     -10.175  -9.606   5.848  0.00  0.00    +0.000 A 
ATOM     30  C23 EE9 A 201      -8.786  -7.202   3.354  0.00  0.00    +0.000 A 
ATOM     31  C25 EE9 A 201      -9.723  -5.939   5.189  0.00  0.00    +0.000 A 
ATOM     32  C27 EE9 A 201      -9.803  -8.375   5.210  0.00  0.00    +0.000 A 
ATOM     33  C30 EE9 A 201      -9.297 -10.849   4.141  0.00  0.00    +0.000 A 
ATOM     34  N29 EE9 A 201      -9.915 -10.795   5.305  0.00  0.00    +0.000 NA
ENDBRANCH   1  25
TORSDOF 3
