REMARK  Name = /Users/chinazoemeh/HopeMScP/data/ligands/BRD4-BD1_BRD4-BD1_66_7K6H/BRD4-BD1_BRD4-BD1_66_7K6H.pdb
REMARK  8 active torsions:
REMARK  status: ('A' for Active; 'I' for Inactive)
REMARK    1  A    between atoms: C1_1  and  O_30
REMARK    2  A    between atoms: C1_1  and  C_31
REMARK    3  A    between atoms: C2_2  and  O_30
REMARK    4  A    between atoms: C4_4  and  N5_32
REMARK    5  A    between atoms: C7_7  and  N_29
REMARK    6  A    between atoms: C19_15  and  N4_20
REMARK    7  A    between atoms: C23_17  and  O2_34
REMARK    8  A    between atoms: N3_26  and  C20_27
REMARK                            x       y       z     vdW  Elec       q    Type
REMARK                         _______ _______ _______ _____ _____    ______ ____
ROOT
ATOM      1  C8  4WG A 201     -17.643  10.418  -8.037  0.00  0.00    +0.000 A 
ATOM      2  C11 4WG A 201     -16.593  12.384  -7.162  0.00  0.00    +0.000 A 
ATOM      3  C12 4WG A 201     -16.845  14.627  -6.451  0.00  0.00    +0.000 A 
ATOM      4  C15 4WG A 201     -17.628  17.308  -7.073  0.00  0.00    +0.000 A 
ATOM      5  C16 4WG A 201     -16.629  16.663  -7.815  0.00  0.00    +0.000 A 
ATOM      6  C17 4WG A 201     -16.220  15.334  -7.525  0.00  0.00    +0.000 A 
ATOM      7  C18 4WG A 201     -15.095  14.823  -8.234  0.00  0.00    +0.000 C 
ATOM      8  C19 4WG A 201     -13.653  13.046  -9.143  0.00  0.00    +0.000 C 
ATOM      9  O1  4WG A 201     -14.193  15.643  -8.528  0.00  0.00    +0.000 OA
ATOM     10  N4  4WG A 201     -14.898  13.484  -8.521  0.00  0.00    +0.000 N 
ATOM     11  C10 4WG A 201     -15.949  12.589  -8.401  0.00  0.00    +0.000 A 
ATOM     12  C9  4WG A 201     -16.222  11.653  -9.432  0.00  0.00    +0.000 A 
ATOM     13  N1  4WG A 201     -17.047  10.605  -9.228  0.00  0.00    +0.000 NA
ATOM     14  C14 4WG A 201     -18.237  16.624  -6.021  0.00  0.00    +0.000 A 
ATOM     15  C13 4WG A 201     -17.855  15.306  -5.721  0.00  0.00    +0.000 A 
ATOM     16  N3  4WG A 201     -16.578  13.296  -6.131  0.00  0.00    +0.000 N 
ATOM     17  C20 4WG A 201     -16.825  12.754  -4.803  0.00  0.00    +0.000 C 
ATOM     18  N2  4WG A 201     -17.407  11.302  -7.038  0.00  0.00    +0.000 NA
ATOM     19  N   4WG A 201     -18.453   9.343  -7.940  0.00  0.00    +0.000 N 
ATOM     20  H22 4WG A 201     -18.480   8.798  -8.677  0.00  0.00    +0.000 HD
ENDROOT
BRANCH  19  26
ATOM     21  C2  4WG A 201     -19.808   7.696  -7.083  0.00  0.00    +0.000 A 
ATOM     22  C3  4WG A 201     -20.655   7.141  -6.106  0.00  0.00    +0.000 A 
ATOM     23  C4  4WG A 201     -20.905   7.930  -4.909  0.00  0.00    +0.000 A 
ATOM     24  C5  4WG A 201     -20.310   9.241  -4.702  0.00  0.00    +0.000 A 
ATOM     25  C6  4WG A 201     -19.486   9.721  -5.726  0.00  0.00    +0.000 A 
ATOM     26  C7  4WG A 201     -19.233   8.961  -6.898  0.00  0.00    +0.000 A 
BRANCH  23  30
ATOM     27  C21 4WG A 201     -21.654   5.959  -3.683  0.00  0.00    +0.000 C 
ATOM     28  C23 4WG A 201     -22.635   6.347  -1.356  0.00  0.00    +0.000 C 
ATOM     29  C24 4WG A 201     -23.197   7.680  -1.893  0.00  0.00    +0.000 C 
ATOM     30  N5  4WG A 201     -21.725   7.401  -3.923  0.00  0.00    +0.000 N 
ATOM     31  C25 4WG A 201     -22.143   8.292  -2.845  0.00  0.00    +0.000 C 
ATOM     32  C22 4WG A 201     -22.553   5.383  -2.556  0.00  0.00    +0.000 C 
BRANCH  28  33
ATOM     33  O2  4WG A 201     -23.427   5.799  -0.301  0.00  0.00    +0.000 OA
ATOM     34  H28 4WG A 201     -22.902   5.600   0.392  0.00  0.00    +0.000 HD
ENDBRANCH  28  33
ENDBRANCH  23  30
BRANCH  21  35
ATOM     35  O   4WG A 201     -19.512   7.051  -8.259  0.00  0.00    +0.000 OA
BRANCH  35  36
ATOM     36  C1  4WG A 201     -19.808   5.649  -8.337  0.00  0.00    +0.000 C 
ATOM     37  C   4WG A 201     -19.423   5.169  -9.743  0.00  0.00    +0.000 C 
ENDBRANCH  35  36
ENDBRANCH  21  35
ENDBRANCH  19  26
TORSDOF 5
