REMARK  Name = /Users/chinazoemeh/HopeMScP/data/ligands/BRD4-BD1_BRD4-BD1_103_7KHL/BRD4-BD1_BRD4-BD1_103_7KHL.pdb
REMARK  5 active torsions:
REMARK  status: ('A' for Active; 'I' for Inactive)
REMARK    1  A    between atoms: N14_13  and  C30_29
REMARK    2  A    between atoms: C18_17  and  C25_24
REMARK    3  A    between atoms: C19_18  and  C21_20
REMARK    4  A    between atoms: C21_20  and  O23_22
REMARK    5  A    between atoms: C25_24  and  S26_25
REMARK                            x       y       z     vdW  Elec       q    Type
REMARK                         _______ _______ _______ _____ _____    ______ ____
ROOT
ATOM      1  C4  WEM A 201      -8.701  18.582   8.602  0.00  0.00    +0.000 A 
ATOM      2  C5  WEM A 201     -10.121  18.899   8.521  0.00  0.00    +0.000 A 
ATOM      3  C6  WEM A 201     -10.828  19.743   7.674  0.00  0.00    +0.000 A 
ATOM      4  C11 WEM A 201     -10.589  17.395  10.396  0.00  0.00    +0.000 A 
ATOM      5  C7  WEM A 201     -12.139  19.683   8.036  0.00  0.00    +0.000 A 
ATOM      6  C10 WEM A 201     -11.036  18.316   9.418  0.00  0.00    +0.000 A 
ATOM      7  C13 WEM A 201     -10.261  20.558   6.535  0.00  0.00    +0.000 C 
ATOM      8  N2  WEM A 201      -9.260  17.103  10.395  0.00  0.00    +0.000 N 
ATOM      9  C3  WEM A 201      -8.353  17.663   9.550  0.00  0.00    +0.000 A 
ATOM     10  C1  WEM A 201      -8.743  16.115  11.343  0.00  0.00    +0.000 C 
ATOM     11  N8  WEM A 201     -12.269  18.812   9.106  0.00  0.00    +0.000 N 
ATOM     12  O12 WEM A 201     -11.385  16.870  11.177  0.00  0.00    +0.000 OA
ATOM     13  N14 WEM A 201      -9.270  19.684   5.923  0.00  0.00    +0.000 N 
ATOM     14  C15 WEM A 201      -7.991  19.710   6.467  0.00  0.00    +0.000 A 
ATOM     15  C16 WEM A 201      -7.693  19.219   7.722  0.00  0.00    +0.000 A 
ATOM     16  C17 WEM A 201      -6.384  19.295   8.230  0.00  0.00    +0.000 A 
ATOM     17  C18 WEM A 201      -5.372  19.832   7.457  0.00  0.00    +0.000 A 
ATOM     18  C19 WEM A 201      -5.670  20.393   6.181  0.00  0.00    +0.000 A 
ATOM     19  C20 WEM A 201      -6.974  20.316   5.696  0.00  0.00    +0.000 A 
ATOM     20  H9  WEM A 201     -13.100  18.585   9.552  0.00  0.00    +0.000 HD
ENDROOT
BRANCH  13  21
ATOM     21  C30 WEM A 201      -9.701  18.619   5.096  0.00  0.00    +0.000 A 
ATOM     22  C31 WEM A 201      -8.839  17.559   4.744  0.00  0.00    +0.000 A 
ATOM     23  C32 WEM A 201      -9.323  16.482   4.010  0.00  0.00    +0.000 A 
ATOM     24  C33 WEM A 201     -10.675  16.486   3.675  0.00  0.00    +0.000 A 
ATOM     25  C34 WEM A 201     -11.478  17.534   4.064  0.00  0.00    +0.000 A 
ATOM     26  N35 WEM A 201     -10.998  18.536   4.769  0.00  0.00    +0.000 NA
ATOM     27  F36 WEM A 201     -11.228  15.488   2.957  0.00  0.00    +0.000 F 
ATOM     28  F37 WEM A 201      -7.519  17.563   5.046  0.00  0.00    +0.000 F 
ENDBRANCH  13  21
BRANCH  18  29
ATOM     29  C21 WEM A 201      -4.681  21.034   5.279  0.00  0.00    +0.000 C 
ATOM     30  O22 WEM A 201      -5.063  21.870   4.473  0.00  0.00    +0.000 OA
BRANCH  29  31
ATOM     31  O23 WEM A 201      -3.388  20.666   5.272  0.00  0.00    +0.000 OA
ATOM     32  C24 WEM A 201      -2.393  21.675   4.915  0.00  0.00    +0.000 C 
ENDBRANCH  29  31
ENDBRANCH  18  29
BRANCH  17  33
ATOM     33  C25 WEM A 201      -3.994  19.885   8.104  0.00  0.00    +0.000 C 
BRANCH  33  34
ATOM     34  S26 WEM A 201      -3.847  21.375   9.143  0.00  0.00    +0.000 S 
ATOM     35  O27 WEM A 201      -3.879  22.504   8.264  0.00  0.00    +0.000 OA
ATOM     36  O28 WEM A 201      -4.780  21.310  10.211  0.00  0.00    +0.000 OA
ATOM     37  C29 WEM A 201      -2.187  21.406   9.848  0.00  0.00    +0.000 C 
ENDBRANCH  33  34
ENDBRANCH  17  33
TORSDOF 5
