REMARK  Name = /Users/chinazoemeh/HopeMScP/data/ligands/BRD4-BD1_BRD4-BD1_54_5U2F/BRD4-BD1_BRD4-BD1_54_5U2F.pdb
REMARK  6 active torsions:
REMARK  status: ('A' for Active; 'I' for Inactive)
REMARK    1  A    between atoms: C17_3  and  N21_23
REMARK    2  A    between atoms: C03_8  and  C05_10
REMARK    3  A    between atoms: C08_13  and  C11_15
REMARK    4  A    between atoms: C17_29  and  N21_49
REMARK    5  A    between atoms: C03_34  and  C05_36
REMARK    6  A    between atoms: C08_39  and  C11_41
REMARK                            x       y       z     vdW  Elec       q    Type
REMARK                         _______ _______ _______ _____ _____    ______ ____
ROOT
ATOM      1  C15 82Y A 201      26.904 -16.028  -2.887  0.00  0.00    +0.000 A 
ATOM      2  C17 82Y A 201      28.866 -17.273  -3.838  0.00  0.00    +0.000 C 
ATOM      3  C11 82Y A 201      25.973 -14.835  -2.604  0.00  0.00    +0.000 A 
ATOM      4  C12 82Y A 201      25.092 -15.151  -1.488  0.00  0.00    +0.000 A 
ATOM      5  S13 82Y A 201      25.422 -16.672  -0.965  0.00  0.00    +0.000 S 
ATOM      6  C14 82Y A 201      26.624 -17.114  -1.970  0.00  0.00    +0.000 A 
ATOM      7  O16 82Y A 201      27.963 -16.123  -3.944  0.00  0.00    +0.000 OA
ATOM      8  C18 82Y A 201      28.538 -18.421  -2.918  0.00  0.00    +0.000 C 
ATOM      9  C19 82Y A 201      27.391 -18.358  -2.059  0.00  0.00    +0.000 C 
ATOM     10  O20 82Y A 201      27.069 -19.307  -1.425  0.00  0.00    +0.000 OA
ENDROOT
BRANCH   3  15
ATOM     11  C10 82Y A 201      27.325 -11.782  -4.393  0.00  0.00    +0.000 A 
ATOM     12  C05 82Y A 201      26.160 -11.151  -4.800  0.00  0.00    +0.000 A 
ATOM     13  C06 82Y A 201      24.919 -11.704  -4.501  0.00  0.00    +0.000 A 
ATOM     14  C07 82Y A 201      24.844 -12.896  -3.795  0.00  0.00    +0.000 A 
ATOM     15  C08 82Y A 201      26.014 -13.523  -3.386  0.00  0.00    +0.000 A 
ATOM     16  C09 82Y A 201      27.249 -12.970  -3.686  0.00  0.00    +0.000 A 
BRANCH  12  19
ATOM     17  O01 82Y A 201      27.614  -7.990  -6.508  0.00  0.00    +0.000 OA
ATOM     18  N02 82Y A 201      27.539  -9.197  -5.790  0.00  0.00    +0.000 NA
ATOM     19  C03 82Y A 201      26.249  -9.838  -5.581  0.00  0.00    +0.000 C 
ATOM     20  O04 82Y A 201      25.260  -9.346  -6.013  0.00  0.00    +0.000 OA
ENDBRANCH  12  19
ENDBRANCH   3  15
BRANCH   2  23
ATOM     21  C22 82Y A 201      31.307 -18.050  -4.121  0.00  0.00    +0.000 C 
ATOM     22  C26 82Y A 201      30.660 -15.872  -5.009  0.00  0.00    +0.000 C 
ATOM     23  N21 82Y A 201      30.224 -17.084  -4.310  0.00  0.00    +0.000 NA
ATOM     24  C23 82Y A 201      32.253 -18.169  -5.311  0.00  0.00    +0.000 C 
ATOM     25  O24 82Y A 201      32.689 -16.940  -5.771  0.00  0.00    +0.000 OA
ATOM     26  C25 82Y A 201      31.632 -16.135  -6.156  0.00  0.00    +0.000 C 
ENDBRANCH   2  23
TORSDOF 3
REMARK  Name = /Users/chinazoemeh/HopeMScP/data/ligands/BRD4-BD1_BRD4-BD1_54_5U2F/BRD4-BD1_BRD4-BD1_54_5U2F.pdb
REMARK  6 active torsions:
REMARK  status: ('A' for Active; 'I' for Inactive)
REMARK    1  A    between atoms: C17_3  and  N21_23
REMARK    2  A    between atoms: C03_8  and  C05_10
REMARK    3  A    between atoms: C08_13  and  C11_15
REMARK    4  A    between atoms: C17_29  and  N21_49
REMARK    5  A    between atoms: C03_34  and  C05_36
REMARK    6  A    between atoms: C08_39  and  C11_41
REMARK                            x       y       z     vdW  Elec       q    Type
REMARK                         _______ _______ _______ _____ _____    ______ ____
ROOT
ATOM      1  C15 82Y B 201      -3.461  -2.540  34.980  0.00  0.00    +0.000 A 
ATOM      2  C17 82Y B 201      -5.654  -3.720  34.654  0.00  0.00    +0.000 A 
ATOM      3  C11 82Y B 201      -2.501  -1.371  35.277  0.00  0.00    +0.000 A 
ATOM      4  C12 82Y B 201      -1.174  -1.683  34.762  0.00  0.00    +0.000 A 
ATOM      5  S13 82Y B 201      -1.209  -3.170  34.065  0.00  0.00    +0.000 S 
ATOM      6  C14 82Y B 201      -2.763  -3.598  34.282  0.00  0.00    +0.000 A 
ATOM      7  O16 82Y B 201      -4.917  -2.647  35.331  0.00  0.00    +0.000 OA
ATOM      8  C18 82Y B 201      -4.920  -4.813  33.923  0.00  0.00    +0.000 A 
ATOM      9  C19 82Y B 201      -3.485  -4.813  33.902  0.00  0.00    +0.000 A 
ATOM     10  O20 82Y B 201      -2.892  -5.789  33.589  0.00  0.00    +0.000 OA
ENDROOT
BRANCH   3  15
ATOM     11  C10 82Y B 201      -4.598   1.556  36.487  0.00  0.00    +0.000 A 
ATOM     12  C05 82Y B 201      -3.705   2.210  37.325  0.00  0.00    +0.000 A 
ATOM     13  C06 82Y B 201      -2.422   1.709  37.509  0.00  0.00    +0.000 A 
ATOM     14  C07 82Y B 201      -2.028   0.554  36.851  0.00  0.00    +0.000 A 
ATOM     15  C08 82Y B 201      -2.919  -0.093  36.005  0.00  0.00    +0.000 A 
ATOM     16  C09 82Y B 201      -4.203   0.403  35.827  0.00  0.00    +0.000 A 
BRANCH  12  19
ATOM     17  O01 82Y B 201      -5.096   4.509  36.004  0.00  0.00    +0.000 OA
ATOM     18  N02 82Y B 201      -4.801   4.575  37.377  0.00  0.00    +0.000 NA
ATOM     19  C03 82Y B 201      -4.127   3.484  38.065  0.00  0.00    +0.000 C 
ATOM     20  O04 82Y B 201      -3.894   3.579  39.224  0.00  0.00    +0.000 OA
ENDBRANCH  12  19
ENDBRANCH   3  15
BRANCH   2  23
ATOM     21  C22 82Y B 201      -7.820  -2.972  35.803  0.00  0.00    +0.000 C 
ATOM     22  C26 82Y B 201      -7.996  -4.606  34.015  0.00  0.00    +0.000 C 
ATOM     23  N21 82Y B 201      -7.096  -3.767  34.809  0.00  0.00    +0.000 N 
ATOM     24  C23 82Y B 201      -9.083  -2.321  35.245  0.00  0.00    +0.000 C 
ATOM     25  O24 82Y B 201      -9.902  -3.223  34.586  0.00  0.00    +0.000 OA
ATOM     26  C25 82Y B 201      -9.253  -3.873  33.550  0.00  0.00    +0.000 C 
ENDBRANCH   2  23
TORSDOF 3
