REMARK  Name = /Users/chinazoemeh/HopeMScP/data/ligands/BRD4-BD1_BRD4-BD1_77_6V1U/BRD4-BD1_BRD4-BD1_77_6V1U.pdb
REMARK  4 active torsions:
REMARK  status: ('A' for Active; 'I' for Inactive)
REMARK    1  A    between atoms: C02_6  and  C03_7
REMARK    2  A    between atoms: C05_9  and  C06_10
REMARK    3  A    between atoms: C08_12  and  C09_13
REMARK    4  A    between atoms: C11_14  and  N10_21
REMARK                            x       y       z     vdW  Elec       q    Type
REMARK                         _______ _______ _______ _____ _____    ______ ____
ROOT
ATOM      1  C15 QMG A 201       6.981  -8.153   1.086  0.00  0.00    +0.000 A 
ATOM      2  C17 QMG A 201       8.399  -7.018  -0.587  0.00  0.00    +0.000 A 
ATOM      3  C06 QMG A 201       9.463  -7.000   0.355  0.00  0.00    +0.000 A 
ATOM      4  C07 QMG A 201       9.261  -7.576   1.638  0.00  0.00    +0.000 A 
ATOM      5  C08 QMG A 201       8.030  -8.143   2.042  0.00  0.00    +0.000 A 
ATOM      6  C16 QMG A 201       7.170  -7.600  -0.194  0.00  0.00    +0.000 A 
ATOM      7  C18 QMG A 201       8.497  -6.456  -1.965  0.00  0.00    +0.000 C 
ENDROOT
BRANCH   3  12
ATOM      8  C21 QMG A 201      12.553  -8.146  -2.640  0.00  0.00    +0.000 A 
ATOM      9  C22 QMG A 201      13.754  -7.406  -2.584  0.00  0.00    +0.000 A 
ATOM     10  C03 QMG A 201      12.661  -5.242   0.239  0.00  0.00    +0.000 A 
ATOM     11  C04 QMG A 201      11.382  -5.439   0.789  0.00  0.00    +0.000 A 
ATOM     12  C05 QMG A 201      10.752  -6.467   0.097  0.00  0.00    +0.000 A 
ATOM     13  C19 QMG A 201      11.681  -6.887  -0.856  0.00  0.00    +0.000 A 
ATOM     14  C23 QMG A 201      13.870  -6.381  -1.623  0.00  0.00    +0.000 A 
ATOM     15  N20 QMG A 201      11.541  -7.877  -1.776  0.00  0.00    +0.000 NA
ATOM     16  N24 QMG A 201      12.814  -6.145  -0.773  0.00  0.00    +0.000 N 
BRANCH  10  17
ATOM     17  C02 QMG A 201      13.591  -4.266   0.684  0.00  0.00    +0.000 C 
ATOM     18  C25 QMG A 201      13.215  -3.260   1.698  0.00  0.00    +0.000 C 
ATOM     19  O01 QMG A 201      14.763  -4.251   0.218  0.00  0.00    +0.000 OA
ENDBRANCH  10  17
ENDBRANCH   3  12
BRANCH   5  20
ATOM     20  C09 QMG A 201       7.874  -8.732   3.337  0.00  0.00    +0.000 C 
ATOM     21  N10 QMG A 201       6.664  -8.934   3.946  0.00  0.00    +0.000 NA
ATOM     22  O14 QMG A 201       8.913  -9.117   3.944  0.00  0.00    +0.000 OA
BRANCH  21  24
ATOM     23  C13 QMG A 201       5.102  -9.888   5.719  0.00  0.00    +0.000 C 
ATOM     24  C11 QMG A 201       6.515  -9.549   5.228  0.00  0.00    +0.000 C 
ATOM     25  C12 QMG A 201       6.020 -11.006   5.205  0.00  0.00    +0.000 C 
ENDBRANCH  21  24
ENDBRANCH   5  20
TORSDOF 4
