REMARK  Name = /Users/chinazoemeh/HopeMScP/data/ligands/BRD4-BD1_BRD4-BD1_9_7REL/BRD4-BD1_BRD4-BD1_9_7REL.pdb
REMARK  1 active torsions:
REMARK  status: ('A' for Active; 'I' for Inactive)
REMARK    1  A    between atoms: C1_1  and  C2_3
REMARK                            x       y       z     vdW  Elec       q    Type
REMARK                         _______ _______ _______ _____ _____    ______ ____
ROOT
ATOM      1  C1  EDO A 201      24.023  -2.019   6.501  0.00  0.00    +0.000 C 
ATOM      2  O1  EDO A 201      23.017  -2.502   7.404  0.00  0.00    +0.000 OA
ENDROOT
BRANCH   1   3
ATOM      3  C2  EDO A 201      25.408  -2.547   6.841  0.00  0.00    +0.000 C 
ATOM      4  O2  EDO A 201      25.368  -3.945   7.148  0.00  0.00    +0.000 OA
ENDBRANCH   1   3
TORSDOF 1
