REMARK  Name = /Users/chinazoemeh/HopeMScP/data/ligands/BRD4-BD1_BRD4-BD1_62_6CZU/BRD4-BD1_BRD4-BD1_62_6CZU.pdb
REMARK  12 active torsions:
REMARK  status: ('A' for Active; 'I' for Inactive)
REMARK    1  A    between atoms: C1_1  and  C2_3
REMARK    2  A    between atoms: C1_5  and  C2_7
REMARK    3  A    between atoms: C1_9  and  C2_11
REMARK    4  A    between atoms: C1_13  and  C1_14
REMARK    5  A    between atoms: C1_14  and  C2_17
REMARK    6  A    between atoms: C2_17  and  C2_18
REMARK    7  A    between atoms: C1_21  and  C1_22
REMARK    8  A    between atoms: C1_21  and  O1_24
REMARK    9  A    between atoms: C1_22  and  C2_25
REMARK   10  A    between atoms: C2_25  and  C2_26
REMARK   11  A    between atoms: C1_29  and  C2_31
REMARK   12  A    between atoms: C1_33  and  C2_35
REMARK                            x       y       z     vdW  Elec       q    Type
REMARK                         _______ _______ _______ _____ _____    ______ ____
ROOT
ATOM      1  C1  EDO A 202     -10.096 -15.839  39.640  0.00  0.00    +0.000 C 
ATOM      2  O1  EDO A 202      -9.628 -14.922  38.637  0.00  0.00    +0.000 OA
ENDROOT
BRANCH   1   3
ATOM      3  C2  EDO A 202      -8.877 -16.096  40.529  0.00  0.00    +0.000 C 
ATOM      4  O2  EDO A 202      -8.658 -14.991  41.428  0.00  0.00    +0.000 OA
ENDBRANCH   1   3
TORSDOF 1
REMARK  Name = /Users/chinazoemeh/HopeMScP/data/ligands/BRD4-BD1_BRD4-BD1_62_6CZU/BRD4-BD1_BRD4-BD1_62_6CZU.pdb
REMARK  12 active torsions:
REMARK  status: ('A' for Active; 'I' for Inactive)
REMARK    1  A    between atoms: C1_1  and  C2_3
REMARK    2  A    between atoms: C1_5  and  C2_7
REMARK    3  A    between atoms: C1_9  and  C2_11
REMARK    4  A    between atoms: C1_13  and  C1_14
REMARK    5  A    between atoms: C1_14  and  C2_17
REMARK    6  A    between atoms: C2_17  and  C2_18
REMARK    7  A    between atoms: C1_21  and  C1_22
REMARK    8  A    between atoms: C1_21  and  O1_24
REMARK    9  A    between atoms: C1_22  and  C2_25
REMARK   10  A    between atoms: C2_25  and  C2_26
REMARK   11  A    between atoms: C1_29  and  C2_31
REMARK   12  A    between atoms: C1_33  and  C2_35
REMARK                            x       y       z     vdW  Elec       q    Type
REMARK                         _______ _______ _______ _____ _____    ______ ____
ROOT
ATOM      1  C1  EDO A 203      -5.568  -4.402  38.074  0.00  0.00    +0.000 C 
ATOM      2  O1  EDO A 203      -5.028  -5.608  38.790  0.00  0.00    +0.000 OA
ENDROOT
BRANCH   1   3
ATOM      3  C2  EDO A 203      -5.045  -4.174  36.622  0.00  0.00    +0.000 C 
ATOM      4  O2  EDO A 203      -5.468  -5.319  35.928  0.00  0.00    +0.000 OA
ENDBRANCH   1   3
TORSDOF 1
REMARK  Name = /Users/chinazoemeh/HopeMScP/data/ligands/BRD4-BD1_BRD4-BD1_62_6CZU/BRD4-BD1_BRD4-BD1_62_6CZU.pdb
REMARK  12 active torsions:
REMARK  status: ('A' for Active; 'I' for Inactive)
REMARK    1  A    between atoms: C1_1  and  C2_3
REMARK    2  A    between atoms: C1_5  and  C2_7
REMARK    3  A    between atoms: C1_9  and  C2_11
REMARK    4  A    between atoms: C1_13  and  C1_14
REMARK    5  A    between atoms: C1_14  and  C2_17
REMARK    6  A    between atoms: C2_17  and  C2_18
REMARK    7  A    between atoms: C1_21  and  C1_22
REMARK    8  A    between atoms: C1_21  and  O1_24
REMARK    9  A    between atoms: C1_22  and  C2_25
REMARK   10  A    between atoms: C2_25  and  C2_26
REMARK   11  A    between atoms: C1_29  and  C2_31
REMARK   12  A    between atoms: C1_33  and  C2_35
REMARK                            x       y       z     vdW  Elec       q    Type
REMARK                         _______ _______ _______ _____ _____    ______ ____
ROOT
ATOM      1  C1  EDO A 204      -8.556 -16.445  16.459  0.00  0.00    +0.000 C 
ATOM      2  O1  EDO A 204      -9.320 -15.382  17.050  0.00  0.00    +0.000 OA
ENDROOT
BRANCH   1   3
ATOM      3  C2  EDO A 204      -9.386 -17.544  15.879  0.00  0.00    +0.000 C 
ATOM      4  O2  EDO A 204     -10.376 -18.071  16.808  0.00  0.00    +0.000 OA
ENDBRANCH   1   3
TORSDOF 1
REMARK  Name = /Users/chinazoemeh/HopeMScP/data/ligands/BRD4-BD1_BRD4-BD1_62_6CZU/BRD4-BD1_BRD4-BD1_62_6CZU.pdb
REMARK  12 active torsions:
REMARK  status: ('A' for Active; 'I' for Inactive)
REMARK    1  A    between atoms: C1_1  and  C2_3
REMARK    2  A    between atoms: C1_5  and  C2_7
REMARK    3  A    between atoms: C1_9  and  C2_11
REMARK    4  A    between atoms: C1_13  and  C1_14
REMARK    5  A    between atoms: C1_14  and  C2_17
REMARK    6  A    between atoms: C2_17  and  C2_18
REMARK    7  A    between atoms: C1_21  and  C1_22
REMARK    8  A    between atoms: C1_21  and  O1_24
REMARK    9  A    between atoms: C1_22  and  C2_25
REMARK   10  A    between atoms: C2_25  and  C2_26
REMARK   11  A    between atoms: C1_29  and  C2_31
REMARK   12  A    between atoms: C1_33  and  C2_35
REMARK                            x       y       z     vdW  Elec       q    Type
REMARK                         _______ _______ _______ _____ _____    ______ ____
ROOT
ATOM      1  C2  EDO A 206       9.997 -10.393  23.966  0.00  0.00    +0.000 C 
ATOM      2  O2  EDO A 206       9.407 -11.665  24.244  0.00  0.00    +0.000 OA
ENDROOT
BRANCH   1   3
ATOM      3  C2  EDO A 206      10.868 -10.718  23.880  0.00  0.00    +0.000 C 
ATOM      4  O2  EDO A 206      12.263 -10.472  23.586  0.00  0.00    +0.000 OA
ENDBRANCH   1   3
BRANCH   1   5
ATOM      5  C1  EDO A 206      10.196  -9.564  24.609  0.00  0.00    +0.000 C 
BRANCH   5   6
ATOM      6  C1  EDO A 206       9.447  -9.386  24.969  0.00  0.00    +0.000 C 
ATOM      7  O1  EDO A 206      10.196  -9.627  26.039  0.00  0.00    +0.000 OA
ENDBRANCH   5   6
ENDBRANCH   1   5
TORSDOF 3
REMARK  Name = /Users/chinazoemeh/HopeMScP/data/ligands/BRD4-BD1_BRD4-BD1_62_6CZU/BRD4-BD1_BRD4-BD1_62_6CZU.pdb
REMARK  12 active torsions:
REMARK  status: ('A' for Active; 'I' for Inactive)
REMARK    1  A    between atoms: C1_1  and  C2_3
REMARK    2  A    between atoms: C1_5  and  C2_7
REMARK    3  A    between atoms: C1_9  and  C2_11
REMARK    4  A    between atoms: C1_13  and  C1_14
REMARK    5  A    between atoms: C1_14  and  C2_17
REMARK    6  A    between atoms: C2_17  and  C2_18
REMARK    7  A    between atoms: C1_21  and  C1_22
REMARK    8  A    between atoms: C1_21  and  O1_24
REMARK    9  A    between atoms: C1_22  and  C2_25
REMARK   10  A    between atoms: C2_25  and  C2_26
REMARK   11  A    between atoms: C1_29  and  C2_31
REMARK   12  A    between atoms: C1_33  and  C2_35
REMARK                            x       y       z     vdW  Elec       q    Type
REMARK                         _______ _______ _______ _____ _____    ______ ____
ROOT
ATOM      1  O1  EDO A 206      10.151  -9.514  26.179  0.00  0.00    +0.000 OA
ENDROOT
TORSDOF 0
REMARK  Name = /Users/chinazoemeh/HopeMScP/data/ligands/BRD4-BD1_BRD4-BD1_62_6CZU/BRD4-BD1_BRD4-BD1_62_6CZU.pdb
REMARK  12 active torsions:
REMARK  status: ('A' for Active; 'I' for Inactive)
REMARK    1  A    between atoms: C1_1  and  C2_3
REMARK    2  A    between atoms: C1_5  and  C2_7
REMARK    3  A    between atoms: C1_9  and  C2_11
REMARK    4  A    between atoms: C1_13  and  C1_14
REMARK    5  A    between atoms: C1_14  and  C2_17
REMARK    6  A    between atoms: C2_17  and  C2_18
REMARK    7  A    between atoms: C1_21  and  C1_22
REMARK    8  A    between atoms: C1_21  and  O1_24
REMARK    9  A    between atoms: C1_22  and  C2_25
REMARK   10  A    between atoms: C2_25  and  C2_26
REMARK   11  A    between atoms: C1_29  and  C2_31
REMARK   12  A    between atoms: C1_33  and  C2_35
REMARK                            x       y       z     vdW  Elec       q    Type
REMARK                         _______ _______ _______ _____ _____    ______ ____
ROOT
ATOM      1  C1  EDO A 207       2.066   8.126  13.152  0.00  0.00    +0.000 C 
ENDROOT
BRANCH   1   2
ATOM      2  C2  EDO A 207       2.263   8.651  12.641  0.00  0.00    +0.000 C 
ATOM      3  O2  EDO A 207       1.561   9.636  13.313  0.00  0.00    +0.000 OA
BRANCH   2   4
ATOM      4  C2  EDO A 207       2.701   9.383  12.548  0.00  0.00    +0.000 C 
ATOM      5  O2  EDO A 207       3.681   9.229  11.458  0.00  0.00    +0.000 OA
ENDBRANCH   2   4
ENDBRANCH   1   2
BRANCH   1   6
ATOM      6  C1  EDO A 207       2.392   7.458  13.567  0.00  0.00    +0.000 C 
BRANCH   6   8
ATOM      7  O1  EDO A 207       2.568   6.317  12.746  0.00  0.00    +0.000 OA
ATOM      8  O1  EDO A 207       2.843   6.928  12.972  0.00  0.00    +0.000 OA
ENDBRANCH   6   8
ENDBRANCH   1   6
TORSDOF 4
REMARK  Name = /Users/chinazoemeh/HopeMScP/data/ligands/BRD4-BD1_BRD4-BD1_62_6CZU/BRD4-BD1_BRD4-BD1_62_6CZU.pdb
REMARK  12 active torsions:
REMARK  status: ('A' for Active; 'I' for Inactive)
REMARK    1  A    between atoms: C1_1  and  C2_3
REMARK    2  A    between atoms: C1_5  and  C2_7
REMARK    3  A    between atoms: C1_9  and  C2_11
REMARK    4  A    between atoms: C1_13  and  C1_14
REMARK    5  A    between atoms: C1_14  and  C2_17
REMARK    6  A    between atoms: C2_17  and  C2_18
REMARK    7  A    between atoms: C1_21  and  C1_22
REMARK    8  A    between atoms: C1_21  and  O1_24
REMARK    9  A    between atoms: C1_22  and  C2_25
REMARK   10  A    between atoms: C2_25  and  C2_26
REMARK   11  A    between atoms: C1_29  and  C2_31
REMARK   12  A    between atoms: C1_33  and  C2_35
REMARK                            x       y       z     vdW  Elec       q    Type
REMARK                         _______ _______ _______ _____ _____    ______ ____
ROOT
ATOM      1  C1  EDO A 208       2.564  -2.545  40.013  0.00  0.00    +0.000 C 
ATOM      2  O1  EDO A 208       1.801  -1.761  40.973  0.00  0.00    +0.000 OA
ENDROOT
BRANCH   1   3
ATOM      3  C2  EDO A 208       2.723  -1.727  38.741  0.00  0.00    +0.000 C 
ATOM      4  O2  EDO A 208       4.126  -1.497  38.522  0.00  0.00    +0.000 OA
ENDBRANCH   1   3
TORSDOF 1
REMARK  Name = /Users/chinazoemeh/HopeMScP/data/ligands/BRD4-BD1_BRD4-BD1_62_6CZU/BRD4-BD1_BRD4-BD1_62_6CZU.pdb
REMARK  12 active torsions:
REMARK  status: ('A' for Active; 'I' for Inactive)
REMARK    1  A    between atoms: C1_1  and  C2_3
REMARK    2  A    between atoms: C1_5  and  C2_7
REMARK    3  A    between atoms: C1_9  and  C2_11
REMARK    4  A    between atoms: C1_13  and  C1_14
REMARK    5  A    between atoms: C1_14  and  C2_17
REMARK    6  A    between atoms: C2_17  and  C2_18
REMARK    7  A    between atoms: C1_21  and  C1_22
REMARK    8  A    between atoms: C1_21  and  O1_24
REMARK    9  A    between atoms: C1_22  and  C2_25
REMARK   10  A    between atoms: C2_25  and  C2_26
REMARK   11  A    between atoms: C1_29  and  C2_31
REMARK   12  A    between atoms: C1_33  and  C2_35
REMARK                            x       y       z     vdW  Elec       q    Type
REMARK                         _______ _______ _______ _____ _____    ______ ____
ROOT
ATOM      1  C1  EDO A 209      -3.285  -8.560  42.285  0.00  0.00    +0.000 C 
ATOM      2  O1  EDO A 209      -2.208  -8.614  43.253  0.00  0.00    +0.000 OA
ENDROOT
BRANCH   1   3
ATOM      3  C2  EDO A 209      -3.095  -7.429  41.266  0.00  0.00    +0.000 C 
ATOM      4  O2  EDO A 209      -2.996  -6.183  41.961  0.00  0.00    +0.000 OA
ENDBRANCH   1   3
TORSDOF 1
