REMARK  Name = /Users/chinazoemeh/HopeMScP/data/ligands/BRD4-BD1_BRD4-BD1_83_8WQO/BRD4-BD1_BRD4-BD1_83_8WQO.pdb
REMARK  9 active torsions:
REMARK  status: ('A' for Active; 'I' for Inactive)
REMARK    1  A    between atoms: C13_2  and  C12_16
REMARK    2  A    between atoms: C15_3  and  C14_17
REMARK    3  A    between atoms: C24_6  and  C26_7
REMARK    4  A    between atoms: C24_6  and  C25_20
REMARK    5  A    between atoms: C24_6  and  N23_29
REMARK    6  A    between atoms: C28_8  and  C27_21
REMARK    7  A    between atoms: C01_9  and  N02_23
REMARK    8  A    between atoms: C06_13  and  N07_24
REMARK    9  A    between atoms: C18_18  and  C19_19
REMARK                            x       y       z     vdW  Elec       q    Type
REMARK                         _______ _______ _______ _____ _____    ______ ____
ROOT
ATOM      1  C21 X3L A 201      10.674  -7.742  -0.069  0.00  0.00    +0.000 A 
ATOM      2  C22 X3L A 201      11.815  -6.898   0.027  0.00  0.00    +0.000 A 
ATOM      3  C28 X3L A 201      14.556  -7.822   0.824  0.00  0.00    +0.000 C 
ATOM      4  C01 X3L A 201      12.879  -3.782   1.727  0.00  0.00    +0.000 C 
ATOM      5  C03 X3L A 201      11.892  -5.977   1.028  0.00  0.00    +0.000 A 
ATOM      6  C04 X3L A 201      10.839  -5.816   1.961  0.00  0.00    +0.000 A 
ATOM      7  C05 X3L A 201       9.725  -6.644   1.861  0.00  0.00    +0.000 A 
ATOM      8  C06 X3L A 201       9.642  -7.593   0.857  0.00  0.00    +0.000 A 
ATOM      9  C27 X3L A 201      14.206  -6.794  -0.265  0.00  0.00    +0.000 C 
ATOM     10  C29 X3L A 201      14.247  -5.380   0.401  0.00  0.00    +0.000 C 
ATOM     11  N02 X3L A 201      13.034  -5.070   1.075  0.00  0.00    +0.000 N 
ATOM     12  N23 X3L A 201      12.933  -7.025  -0.874  0.00  0.00    +0.000 N 
ATOM     13  O30 X3L A 201      15.159  -4.616   0.405  0.00  0.00    +0.000 OA
ENDROOT
BRANCH   8  18
ATOM     14  C10 X3L A 201       6.627 -11.003  -0.830  0.00  0.00    +0.000 A 
ATOM     15  C08 X3L A 201       8.014  -9.294  -0.201  0.00  0.00    +0.000 A 
ATOM     16  C11 X3L A 201       7.285 -11.023  -2.047  0.00  0.00    +0.000 A 
ATOM     17  C12 X3L A 201       8.318 -10.133  -2.278  0.00  0.00    +0.000 A 
ATOM     18  N07 X3L A 201       8.403  -8.374   0.864  0.00  0.00    +0.000 N 
ATOM     19  N09 X3L A 201       7.030 -10.121   0.067  0.00  0.00    +0.000 NA
ATOM     20  N20 X3L A 201       8.652  -9.280  -1.331  0.00  0.00    +0.000 NA
ATOM     21 H071 X3L A 201       7.873  -8.285   1.536  0.00  0.00    +0.000 HD
BRANCH  17  22
ATOM     22  C13 X3L A 201       9.095 -10.098  -3.576  0.00  0.00    +0.000 A 
ATOM     23  C15 X3L A 201       9.154  -7.510  -3.898  0.00  0.00    +0.000 C 
ATOM     24  C14 X3L A 201       9.460  -8.965  -4.270  0.00  0.00    +0.000 A 
ATOM     25  C18 X3L A 201       9.584 -11.204  -4.271  0.00  0.00    +0.000 A 
ATOM     26  C19 X3L A 201       9.427 -12.673  -3.867  0.00  0.00    +0.000 C 
ATOM     27  N16 X3L A 201      10.125  -9.365  -5.328  0.00  0.00    +0.000 N 
ATOM     28  N17 X3L A 201      10.221 -10.739  -5.356  0.00  0.00    +0.000 NA
ATOM     29 H161 X3L A 201      10.456  -8.841  -5.924  0.00  0.00    +0.000 HD
ENDBRANCH  17  22
ENDBRANCH   8  18
BRANCH  12  30
ATOM     30  C24 X3L A 201      12.769  -7.955  -2.005  0.00  0.00    +0.000 C 
ATOM     31  C26 X3L A 201      13.548  -7.413  -3.209  0.00  0.00    +0.000 C 
ATOM     32  C25 X3L A 201      13.121  -9.410  -1.665  0.00  0.00    +0.000 C 
ENDBRANCH  12  30
TORSDOF 3
