REMARK  Name = /Users/chinazoemeh/HopeMScP/data/ligands/BRD4-BD1_BRD4-BD1_47_6Q3Z/BRD4-BD1_BRD4-BD1_47_6Q3Z.pdb
REMARK  7 active torsions:
REMARK  status: ('A' for Active; 'I' for Inactive)
REMARK    1  A    between atoms: C1_1  and  C2_3
REMARK    2  A    between atoms: C1_5  and  C2_7
REMARK    3  A    between atoms: C1_9  and  C2_11
REMARK    4  A    between atoms: C1_13  and  C2_15
REMARK    5  A    between atoms: C1_17  and  C2_19
REMARK    6  A    between atoms: C1_21  and  C2_23
REMARK    7  A    between atoms: C1_25  and  C2_27
REMARK                            x       y       z     vdW  Elec       q    Type
REMARK                         _______ _______ _______ _____ _____    ______ ____
ROOT
ATOM      1  C1  EDO A 202      13.854 -12.401   4.998  0.00  0.00    +0.000 C 
ATOM      2  O1  EDO A 202      14.097 -13.383   4.024  0.00  0.00    +0.000 OA
ENDROOT
BRANCH   1   3
ATOM      3  C2  EDO A 202      15.056 -11.616   5.288  0.00  0.00    +0.000 C 
ATOM      4  O2  EDO A 202      16.194 -12.423   5.516  0.00  0.00    +0.000 OA
ENDBRANCH   1   3
TORSDOF 1
REMARK  Name = /Users/chinazoemeh/HopeMScP/data/ligands/BRD4-BD1_BRD4-BD1_47_6Q3Z/BRD4-BD1_BRD4-BD1_47_6Q3Z.pdb
REMARK  7 active torsions:
REMARK  status: ('A' for Active; 'I' for Inactive)
REMARK    1  A    between atoms: C1_1  and  C2_3
REMARK    2  A    between atoms: C1_5  and  C2_7
REMARK    3  A    between atoms: C1_9  and  C2_11
REMARK    4  A    between atoms: C1_13  and  C2_15
REMARK    5  A    between atoms: C1_17  and  C2_19
REMARK    6  A    between atoms: C1_21  and  C2_23
REMARK    7  A    between atoms: C1_25  and  C2_27
REMARK                            x       y       z     vdW  Elec       q    Type
REMARK                         _______ _______ _______ _____ _____    ______ ____
ROOT
ATOM      1  C1  EDO A 203      23.920  -9.774  27.112  0.00  0.00    +0.000 C 
ATOM      2  O1  EDO A 203      23.992  -8.859  28.196  0.00  0.00    +0.000 OA
ENDROOT
BRANCH   1   3
ATOM      3  C2  EDO A 203      22.811 -10.771  27.215  0.00  0.00    +0.000 C 
ATOM      4  O2  EDO A 203      23.244 -12.095  27.527  0.00  0.00    +0.000 OA
ENDBRANCH   1   3
TORSDOF 1
REMARK  Name = /Users/chinazoemeh/HopeMScP/data/ligands/BRD4-BD1_BRD4-BD1_47_6Q3Z/BRD4-BD1_BRD4-BD1_47_6Q3Z.pdb
REMARK  7 active torsions:
REMARK  status: ('A' for Active; 'I' for Inactive)
REMARK    1  A    between atoms: C1_1  and  C2_3
REMARK    2  A    between atoms: C1_5  and  C2_7
REMARK    3  A    between atoms: C1_9  and  C2_11
REMARK    4  A    between atoms: C1_13  and  C2_15
REMARK    5  A    between atoms: C1_17  and  C2_19
REMARK    6  A    between atoms: C1_21  and  C2_23
REMARK    7  A    between atoms: C1_25  and  C2_27
REMARK                            x       y       z     vdW  Elec       q    Type
REMARK                         _______ _______ _______ _____ _____    ______ ____
ROOT
ATOM      1  C1  EDO A 204      24.976 -20.715  18.495  0.00  0.00    +0.000 C 
ATOM      2  O1  EDO A 204      25.845 -21.651  17.883  0.00  0.00    +0.000 OA
ENDROOT
BRANCH   1   3
ATOM      3  C2  EDO A 204      23.966 -20.134  17.576  0.00  0.00    +0.000 C 
ATOM      4  O2  EDO A 204      24.544 -19.484  16.451  0.00  0.00    +0.000 OA
ENDBRANCH   1   3
TORSDOF 1
REMARK  Name = /Users/chinazoemeh/HopeMScP/data/ligands/BRD4-BD1_BRD4-BD1_47_6Q3Z/BRD4-BD1_BRD4-BD1_47_6Q3Z.pdb
REMARK  7 active torsions:
REMARK  status: ('A' for Active; 'I' for Inactive)
REMARK    1  A    between atoms: C1_1  and  C2_3
REMARK    2  A    between atoms: C1_5  and  C2_7
REMARK    3  A    between atoms: C1_9  and  C2_11
REMARK    4  A    between atoms: C1_13  and  C2_15
REMARK    5  A    between atoms: C1_17  and  C2_19
REMARK    6  A    between atoms: C1_21  and  C2_23
REMARK    7  A    between atoms: C1_25  and  C2_27
REMARK                            x       y       z     vdW  Elec       q    Type
REMARK                         _______ _______ _______ _____ _____    ______ ____
ROOT
ATOM      1  C1  EDO A 205      37.599 -13.685  11.135  0.00  0.00    +0.000 C 
ATOM      2  O1  EDO A 205      37.425 -12.278  11.029  0.00  0.00    +0.000 OA
ENDROOT
BRANCH   1   3
ATOM      3  C2  EDO A 205      38.049 -14.165  12.481  0.00  0.00    +0.000 C 
ATOM      4  O2  EDO A 205      38.383 -13.120  13.399  0.00  0.00    +0.000 OA
ENDBRANCH   1   3
TORSDOF 1
REMARK  Name = /Users/chinazoemeh/HopeMScP/data/ligands/BRD4-BD1_BRD4-BD1_47_6Q3Z/BRD4-BD1_BRD4-BD1_47_6Q3Z.pdb
REMARK  7 active torsions:
REMARK  status: ('A' for Active; 'I' for Inactive)
REMARK    1  A    between atoms: C1_1  and  C2_3
REMARK    2  A    between atoms: C1_5  and  C2_7
REMARK    3  A    between atoms: C1_9  and  C2_11
REMARK    4  A    between atoms: C1_13  and  C2_15
REMARK    5  A    between atoms: C1_17  and  C2_19
REMARK    6  A    between atoms: C1_21  and  C2_23
REMARK    7  A    between atoms: C1_25  and  C2_27
REMARK                            x       y       z     vdW  Elec       q    Type
REMARK                         _______ _______ _______ _____ _____    ______ ____
ROOT
ATOM      1  C1  EDO B 202       6.560  10.940  31.917  0.00  0.00    +0.000 C 
ATOM      2  O1  EDO B 202       6.875  11.174  30.565  0.00  0.00    +0.000 OA
ENDROOT
BRANCH   1   3
ATOM      3  C2  EDO B 202       7.672  10.366  32.727  0.00  0.00    +0.000 C 
ATOM      4  O2  EDO B 202       7.597  10.677  34.120  0.00  0.00    +0.000 OA
ENDBRANCH   1   3
TORSDOF 1
REMARK  Name = /Users/chinazoemeh/HopeMScP/data/ligands/BRD4-BD1_BRD4-BD1_47_6Q3Z/BRD4-BD1_BRD4-BD1_47_6Q3Z.pdb
REMARK  7 active torsions:
REMARK  status: ('A' for Active; 'I' for Inactive)
REMARK    1  A    between atoms: C1_1  and  C2_3
REMARK    2  A    between atoms: C1_5  and  C2_7
REMARK    3  A    between atoms: C1_9  and  C2_11
REMARK    4  A    between atoms: C1_13  and  C2_15
REMARK    5  A    between atoms: C1_17  and  C2_19
REMARK    6  A    between atoms: C1_21  and  C2_23
REMARK    7  A    between atoms: C1_25  and  C2_27
REMARK                            x       y       z     vdW  Elec       q    Type
REMARK                         _______ _______ _______ _____ _____    ______ ____
ROOT
ATOM      1  C1  EDO B 203      15.048   5.000  30.892  0.00  0.00    +0.000 C 
ATOM      2  O1  EDO B 203      14.363   3.872  31.442  0.00  0.00    +0.000 OA
ENDROOT
BRANCH   1   3
ATOM      3  C2  EDO B 203      16.091   5.544  31.796  0.00  0.00    +0.000 C 
ATOM      4  O2  EDO B 203      15.565   6.089  32.986  0.00  0.00    +0.000 OA
ENDBRANCH   1   3
TORSDOF 1
REMARK  Name = /Users/chinazoemeh/HopeMScP/data/ligands/BRD4-BD1_BRD4-BD1_47_6Q3Z/BRD4-BD1_BRD4-BD1_47_6Q3Z.pdb
REMARK  7 active torsions:
REMARK  status: ('A' for Active; 'I' for Inactive)
REMARK    1  A    between atoms: C1_1  and  C2_3
REMARK    2  A    between atoms: C1_5  and  C2_7
REMARK    3  A    between atoms: C1_9  and  C2_11
REMARK    4  A    between atoms: C1_13  and  C2_15
REMARK    5  A    between atoms: C1_17  and  C2_19
REMARK    6  A    between atoms: C1_21  and  C2_23
REMARK    7  A    between atoms: C1_25  and  C2_27
REMARK                            x       y       z     vdW  Elec       q    Type
REMARK                         _______ _______ _______ _____ _____    ______ ____
ROOT
ATOM      1  C1  EDO B 204      24.872  13.580  44.226  0.00  0.00    +0.000 C 
ATOM      2  O1  EDO B 204      23.713  12.816  43.985  0.00  0.00    +0.000 OA
ENDROOT
BRANCH   1   3
ATOM      3  C2  EDO B 204      26.091  12.745  44.315  0.00  0.00    +0.000 C 
ATOM      4  O2  EDO B 204      25.949  11.680  45.219  0.00  0.00    +0.000 OA
ENDBRANCH   1   3
TORSDOF 1
