REMARK  Name = /Users/chinazoemeh/HopeMScP/data/ligands/BRD4-BD1_BRD4-BD1_79_7MR9/BRD4-BD1_BRD4-BD1_79_7MR9.pdb
REMARK  3 active torsions:
REMARK  status: ('A' for Active; 'I' for Inactive)
REMARK    1  A    between atoms: C1_1  and  C2_3
REMARK    2  A    between atoms: C1_5  and  C2_7
REMARK    3  A    between atoms: C1_9  and  C2_11
REMARK                            x       y       z     vdW  Elec       q    Type
REMARK                         _______ _______ _______ _____ _____    ______ ____
ROOT
ATOM      1  C1  EDO A 202       7.123  10.090  19.689  0.00  0.00    +0.000 C 
ATOM      2  O1  EDO A 202       7.690  10.660  20.843  0.00  0.00    +0.000 OA
ENDROOT
BRANCH   1   3
ATOM      3  C2  EDO A 202       6.206  11.202  19.232  0.00  0.00    +0.000 C 
ATOM      4  O2  EDO A 202       5.814  10.810  17.949  0.00  0.00    +0.000 OA
ENDBRANCH   1   3
TORSDOF 1
REMARK  Name = /Users/chinazoemeh/HopeMScP/data/ligands/BRD4-BD1_BRD4-BD1_79_7MR9/BRD4-BD1_BRD4-BD1_79_7MR9.pdb
REMARK  3 active torsions:
REMARK  status: ('A' for Active; 'I' for Inactive)
REMARK    1  A    between atoms: C1_1  and  C2_3
REMARK    2  A    between atoms: C1_5  and  C2_7
REMARK    3  A    between atoms: C1_9  and  C2_11
REMARK                            x       y       z     vdW  Elec       q    Type
REMARK                         _______ _______ _______ _____ _____    ______ ____
ROOT
ATOM      1  C1  EDO A 203      24.609  -2.408   5.914  0.00  0.00    +0.000 C 
ATOM      2  O1  EDO A 203      25.005  -3.458   6.803  0.00  0.00    +0.000 OA
ENDROOT
BRANCH   1   3
ATOM      3  C2  EDO A 203      23.632  -1.538   6.662  0.00  0.00    +0.000 C 
ATOM      4  O2  EDO A 203      22.461  -2.276   7.031  0.00  0.00    +0.000 OA
ENDBRANCH   1   3
TORSDOF 1
REMARK  Name = /Users/chinazoemeh/HopeMScP/data/ligands/BRD4-BD1_BRD4-BD1_79_7MR9/BRD4-BD1_BRD4-BD1_79_7MR9.pdb
REMARK  3 active torsions:
REMARK  status: ('A' for Active; 'I' for Inactive)
REMARK    1  A    between atoms: C1_1  and  C2_3
REMARK    2  A    between atoms: C1_5  and  C2_7
REMARK    3  A    between atoms: C1_9  and  C2_11
REMARK                            x       y       z     vdW  Elec       q    Type
REMARK                         _______ _______ _______ _____ _____    ______ ____
ROOT
ATOM      1  C1  EDO A 204       7.911  -4.759  -4.787  0.00  0.00    +0.000 C 
ATOM      2  O1  EDO A 204       7.331  -5.569  -5.807  0.00  0.00    +0.000 OA
ENDROOT
BRANCH   1   3
ATOM      3  C2  EDO A 204       9.402  -4.705  -5.046  0.00  0.00    +0.000 C 
ATOM      4  O2  EDO A 204       9.746  -5.545  -6.192  0.00  0.00    +0.000 OA
ENDBRANCH   1   3
TORSDOF 1
