REMARK  Name = /Users/chinazoemeh/HopeMScP/data/ligands/BRD4-BD1_BRD4-BD1_71_6XVC/BRD4-BD1_BRD4-BD1_71_6XVC.pdb
REMARK  2 active torsions:
REMARK  status: ('A' for Active; 'I' for Inactive)
REMARK    1  A    between atoms: C1_1  and  C2_3
REMARK    2  A    between atoms: C1_5  and  C2_7
REMARK                            x       y       z     vdW  Elec       q    Type
REMARK                         _______ _______ _______ _____ _____    ______ ____
ROOT
ATOM      1  C1  EDO B 201     -25.011   8.768   0.902  0.00  0.00    +0.000 C 
ATOM      2  O1  EDO B 201     -24.746   9.173  -0.411  0.00  0.00    +0.000 OA
ENDROOT
BRANCH   1   3
ATOM      3  C2  EDO B 201     -24.512   7.311   1.056  0.00  0.00    +0.000 C 
ATOM      4  O2  EDO B 201     -25.118   6.502   0.058  0.00  0.00    +0.000 OA
ENDBRANCH   1   3
TORSDOF 1
REMARK  Name = /Users/chinazoemeh/HopeMScP/data/ligands/BRD4-BD1_BRD4-BD1_71_6XVC/BRD4-BD1_BRD4-BD1_71_6XVC.pdb
REMARK  2 active torsions:
REMARK  status: ('A' for Active; 'I' for Inactive)
REMARK    1  A    between atoms: C1_1  and  C2_3
REMARK    2  A    between atoms: C1_5  and  C2_7
REMARK                            x       y       z     vdW  Elec       q    Type
REMARK                         _______ _______ _______ _____ _____    ______ ____
ROOT
ATOM      1  C1  EDO B 202      -8.004  22.984 -12.468  0.00  0.00    +0.000 C 
ATOM      2  O1  EDO B 202      -6.819  23.228 -11.709  0.00  0.00    +0.000 OA
ENDROOT
BRANCH   1   3
ATOM      3  C2  EDO B 202      -8.746  21.778 -11.839  0.00  0.00    +0.000 C 
ATOM      4  O2  EDO B 202      -7.914  20.606 -11.829  0.00  0.00    +0.000 OA
ENDBRANCH   1   3
TORSDOF 1
