REMARK  Name = /Users/chinazoemeh/HopeMScP/data/ligands/BRD4-BD1_BRD4-BD1_10_7REM/BRD4-BD1_BRD4-BD1_10_7REM.pdb
REMARK  7 active torsions:
REMARK  status: ('A' for Active; 'I' for Inactive)
REMARK    1  A    between atoms: C15_3  and  N14_35
REMARK    2  A    between atoms: C02_11  and  S05_40
REMARK    3  A    between atoms: C07_14  and  N06_33
REMARK    4  A    between atoms: C09_16  and  N10_34
REMARK    5  A    between atoms: C18_19  and  C19_20
REMARK    6  A    between atoms: C31_24  and  C32_25
REMARK    7  A    between atoms: N06_33  and  S05_40
REMARK                            x       y       z     vdW  Elec       q    Type
REMARK                         _______ _______ _______ _____ _____    ______ ____
ROOT
ATOM      1  N12 4OF A 201      13.423  -6.086  -0.874  0.00  0.00    +0.000 NA
ATOM      2  C13 4OF A 201      14.698  -5.895  -1.183  0.00  0.00    +0.000 C 
ATOM      3  C11 4OF A 201      12.856  -5.280   0.021  0.00  0.00    +0.000 C 
ATOM      4  C30 4OF A 201      14.923  -4.112   0.249  0.00  0.00    +0.000 C 
ATOM      5  C31 4OF A 201      13.597  -4.265   0.636  0.00  0.00    +0.000 C 
ATOM      6  N10 4OF A 201      11.461  -5.456   0.410  0.00  0.00    +0.000 NA
ATOM      7  N14 4OF A 201      15.378  -6.722  -2.166  0.00  0.00    +0.000 NA
ATOM      8  N29 4OF A 201      15.436  -4.943  -0.644  0.00  0.00    +0.000 NA
ENDROOT
BRANCH   7   9
ATOM      9  C15 4OF A 201      14.811  -7.743  -3.026  0.00  0.00    +0.000 A 
ATOM     10  C17 4OF A 201      15.072  -9.058  -5.030  0.00  0.00    +0.000 A 
ATOM     11  C26 4OF A 201      13.186  -9.397  -3.584  0.00  0.00    +0.000 A 
ATOM     12  C28 4OF A 201      13.633  -8.402  -2.722  0.00  0.00    +0.000 A 
ATOM     13  C16 4OF A 201      15.532  -8.072  -4.169  0.00  0.00    +0.000 A 
ATOM     14  C18 4OF A 201      13.895  -9.717  -4.723  0.00  0.00    +0.000 A 
ATOM     15  F27 4OF A 201      12.033 -10.066  -3.327  0.00  0.00    +0.000 F 
BRANCH  14  19
ATOM     16  C20 4OF A 201      13.043 -10.213  -6.928  0.00  0.00    +0.000 C 
ATOM     17  C21 4OF A 201      13.626 -10.986  -8.112  0.00  0.00    +0.000 C 
ATOM     18  C24 4OF A 201      14.163 -12.896  -6.778  0.00  0.00    +0.000 C 
ATOM     19  C19 4OF A 201      13.341 -10.808  -5.652  0.00  0.00    +0.000 C 
ATOM     20  C23 4OF A 201      13.894 -12.966  -8.923  0.00  0.00    +0.000 C 
ATOM     21  C25 4OF A 201      14.331 -11.860  -5.660  0.00  0.00    +0.000 C 
ATOM     22  N22 4OF A 201      13.474 -12.399  -7.935  0.00  0.00    +0.000 NA
ENDBRANCH  14  19
ENDBRANCH   7   9
BRANCH   6  25
ATOM     23  C07 4OF A 201       9.713  -7.319  -2.327  0.00  0.00    +0.000 A 
ATOM     24  C08 4OF A 201      10.677  -6.551  -1.684  0.00  0.00    +0.000 A 
ATOM     25  C09 4OF A 201      10.501  -6.268  -0.334  0.00  0.00    +0.000 A 
ATOM     26  C36 4OF A 201       9.390  -6.720   0.355  0.00  0.00    +0.000 A 
ATOM     27  C37 4OF A 201       8.425  -7.486  -0.297  0.00  0.00    +0.000 A 
ATOM     28  C38 4OF A 201       8.607  -7.781  -1.637  0.00  0.00    +0.000 A 
ATOM     29 CL39 4OF A 201       7.414  -8.753  -2.540  0.00  0.00    +0.000 Cl
BRANCH  23  30
ATOM     30  N06 4OF A 201       9.834  -7.695  -3.728  0.00  0.00    +0.000 NA
BRANCH  30  33
ATOM     31  O40 4OF A 201      11.673  -5.950  -4.549  0.00  0.00    +0.000 OA
ATOM     32  O41 4OF A 201      10.826  -7.453  -6.116  0.00  0.00    +0.000 OA
ATOM     33  S05 4OF A 201      10.444  -6.652  -4.946  0.00  0.00    +0.000 S 
BRANCH  33  35
ATOM     34  C01 4OF A 201       8.748  -4.620  -4.264  0.00  0.00    +0.000 C 
ATOM     35  C02 4OF A 201       9.154  -5.472  -5.460  0.00  0.00    +0.000 C 
ATOM     36  C03 4OF A 201       7.957  -6.266  -5.983  0.00  0.00    +0.000 C 
ATOM     37  C04 4OF A 201       9.725  -4.597  -6.575  0.00  0.00    +0.000 C 
ENDBRANCH  33  35
ENDBRANCH  30  33
ENDBRANCH  23  30
ENDBRANCH   6  25
BRANCH   5  38
ATOM     38  C32 4OF A 201      12.966  -3.299   1.659  0.00  0.00    +0.000 C 
ATOM     39  F33 4OF A 201      11.891  -2.680   1.114  0.00  0.00    +0.000 F 
ATOM     40  F34 4OF A 201      13.846  -2.324   2.024  0.00  0.00    +0.000 F 
ATOM     41  F35 4OF A 201      12.507  -3.943   2.750  0.00  0.00    +0.000 F 
ENDBRANCH   5  38
TORSDOF 7
