REMARK  Name = /Users/chinazoemeh/HopeMScP/data/ligands/BRD4-BD1_BRD4-BD1_68_6P05/BRD4-BD1_BRD4-BD1_68_6P05.pdb
REMARK  10 active torsions:
REMARK  status: ('A' for Active; 'I' for Inactive)
REMARK    1  A    between atoms: C1_1  and  O1_2
REMARK    2  A    between atoms: C1_1  and  C2_3
REMARK    3  A    between atoms: C2_3  and  O2_4
REMARK    4  A    between atoms: C2_3  and  C3_5
REMARK    5  A    between atoms: C3_5  and  O3_6
REMARK    6  A    between atoms: C1_15  and  O1_16
REMARK    7  A    between atoms: C1_15  and  C2_17
REMARK    8  A    between atoms: C2_17  and  O2_18
REMARK    9  A    between atoms: C2_17  and  C3_19
REMARK   10  A    between atoms: C3_19  and  O3_20
REMARK                            x       y       z     vdW  Elec       q    Type
REMARK                         _______ _______ _______ _____ _____    ______ ____
ROOT
ATOM      1  C2  GOL A 201       2.128  -8.098  23.129  0.00  0.00    +0.000 C 
ENDROOT
BRANCH   1   2
ATOM      2  O2  GOL A 201       1.372  -6.861  23.349  0.00  0.00    +0.000 OA
ATOM      3  HO2 GOL A 201       0.522  -7.071  23.760  0.00  0.00    +0.000 HD
ENDBRANCH   1   2
BRANCH   1   4
ATOM      4  C1  GOL A 201       1.298  -9.078  22.305  0.00  0.00    +0.000 C 
BRANCH   4   5
ATOM      5  O1  GOL A 201       0.043  -9.364  23.017  0.00  0.00    +0.000 OA
ATOM      6  HO1 GOL A 201      -0.438 -10.064  22.555  0.00  0.00    +0.000 HD
ENDBRANCH   4   5
ENDBRANCH   1   4
BRANCH   1   7
ATOM      7  C3  GOL A 201       2.360  -8.857  24.384  0.00  0.00    +0.000 C 
BRANCH   7   8
ATOM      8  O3  GOL A 201       3.284  -8.249  25.194  0.00  0.00    +0.000 OA
ATOM      9  HO3 GOL A 201       2.942  -7.393  25.487  0.00  0.00    +0.000 HD
ENDBRANCH   7   8
ENDBRANCH   1   7
TORSDOF 5
REMARK  Name = /Users/chinazoemeh/HopeMScP/data/ligands/BRD4-BD1_BRD4-BD1_68_6P05/BRD4-BD1_BRD4-BD1_68_6P05.pdb
REMARK  10 active torsions:
REMARK  status: ('A' for Active; 'I' for Inactive)
REMARK    1  A    between atoms: C1_1  and  O1_2
REMARK    2  A    between atoms: C1_1  and  C2_3
REMARK    3  A    between atoms: C2_3  and  O2_4
REMARK    4  A    between atoms: C2_3  and  C3_5
REMARK    5  A    between atoms: C3_5  and  O3_6
REMARK    6  A    between atoms: C1_15  and  O1_16
REMARK    7  A    between atoms: C1_15  and  C2_17
REMARK    8  A    between atoms: C2_17  and  O2_18
REMARK    9  A    between atoms: C2_17  and  C3_19
REMARK   10  A    between atoms: C3_19  and  O3_20
REMARK                            x       y       z     vdW  Elec       q    Type
REMARK                         _______ _______ _______ _____ _____    ______ ____
ROOT
ATOM      1  C2  GOL A 202       7.369  25.786   5.459  0.00  0.00    +0.000 C 
ENDROOT
BRANCH   1   2
ATOM      2  O2  GOL A 202       6.965  25.777   4.101  0.00  0.00    +0.000 OA
ATOM      3  HO2 GOL A 202       7.678  26.128   3.551  0.00  0.00    +0.000 HD
ENDBRANCH   1   2
BRANCH   1   4
ATOM      4  C1  GOL A 202       6.357  24.844   6.189  0.00  0.00    +0.000 C 
BRANCH   4   5
ATOM      5  O1  GOL A 202       6.531  24.771   7.568  0.00  0.00    +0.000 OA
ATOM      6  HO1 GOL A 202       6.175  25.568   7.981  0.00  0.00    +0.000 HD
ENDBRANCH   4   5
ENDBRANCH   1   4
BRANCH   1   7
ATOM      7  C3  GOL A 202       7.243  27.232   5.960  0.00  0.00    +0.000 C 
BRANCH   7   8
ATOM      8  O3  GOL A 202       5.893  27.729   5.899  0.00  0.00    +0.000 OA
ATOM      9  HO3 GOL A 202       5.334  27.226   6.501  0.00  0.00    +0.000 HD
ENDBRANCH   7   8
ENDBRANCH   1   7
TORSDOF 5
