REMARK  Name = /Users/chinazoemeh/HopeMScP/data/ligands/BRD4-BD1_BRD4-BD1_91_6KEK/BRD4-BD1_BRD4-BD1_91_6KEK.pdb
REMARK  0 active torsions:
REMARK  status: ('A' for Active; 'I' for Inactive)
REMARK                            x       y       z     vdW  Elec       q    Type
REMARK                         _______ _______ _______ _____ _____    ______ ____
ROOT
ATOM      1  C   FMT A 201     -10.409  -3.120  87.603  0.00  0.00    +0.000 C 
ATOM      2  O1  FMT A 201     -11.633  -2.994  87.752  0.00  0.00    +0.000 OA
ATOM      3  O2  FMT A 201      -9.826  -4.212  87.534  0.00  0.00    +0.000 OA
ENDROOT
TORSDOF 0
REMARK  Name = /Users/chinazoemeh/HopeMScP/data/ligands/BRD4-BD1_BRD4-BD1_91_6KEK/BRD4-BD1_BRD4-BD1_91_6KEK.pdb
REMARK  0 active torsions:
REMARK  status: ('A' for Active; 'I' for Inactive)
REMARK                            x       y       z     vdW  Elec       q    Type
REMARK                         _______ _______ _______ _____ _____    ______ ____
ROOT
ATOM      1  C   FMT A 202     -24.169 -10.970  90.078  0.00  0.00    +0.000 C 
ATOM      2  O1  FMT A 202     -23.137 -10.777  90.727  0.00  0.00    +0.000 OA
ATOM      3  O2  FMT A 202     -25.293 -11.106  90.571  0.00  0.00    +0.000 OA
ENDROOT
TORSDOF 0
REMARK  Name = /Users/chinazoemeh/HopeMScP/data/ligands/BRD4-BD1_BRD4-BD1_91_6KEK/BRD4-BD1_BRD4-BD1_91_6KEK.pdb
REMARK  0 active torsions:
REMARK  status: ('A' for Active; 'I' for Inactive)
REMARK                            x       y       z     vdW  Elec       q    Type
REMARK                         _______ _______ _______ _____ _____    ______ ____
ROOT
ATOM      1  C   FMT A 203     -26.351  10.070  98.849  0.00  0.00    +0.000 C 
ATOM      2  O1  FMT A 203     -25.419   9.495  99.391  0.00  0.00    +0.000 OA
ATOM      3  O2  FMT A 203     -27.031  10.943  99.393  0.00  0.00    +0.000 OA
ENDROOT
TORSDOF 0
REMARK  Name = /Users/chinazoemeh/HopeMScP/data/ligands/BRD4-BD1_BRD4-BD1_91_6KEK/BRD4-BD1_BRD4-BD1_91_6KEK.pdb
REMARK  0 active torsions:
REMARK  status: ('A' for Active; 'I' for Inactive)
REMARK                            x       y       z     vdW  Elec       q    Type
REMARK                         _______ _______ _______ _____ _____    ______ ____
ROOT
ATOM      1  C   FMT A 204     -31.229  -7.480  81.244  0.00  0.00    +0.000 C 
ATOM      2  O1  FMT A 204     -31.444  -6.281  81.426  0.00  0.00    +0.000 OA
ATOM      3  O2  FMT A 204     -32.037  -8.248  80.712  0.00  0.00    +0.000 OA
ENDROOT
TORSDOF 0
REMARK  Name = /Users/chinazoemeh/HopeMScP/data/ligands/BRD4-BD1_BRD4-BD1_91_6KEK/BRD4-BD1_BRD4-BD1_91_6KEK.pdb
REMARK  0 active torsions:
REMARK  status: ('A' for Active; 'I' for Inactive)
REMARK                            x       y       z     vdW  Elec       q    Type
REMARK                         _______ _______ _______ _____ _____    ______ ____
ROOT
ATOM      1  C   FMT A 205     -20.974  17.655  97.524  0.00  0.00    +0.000 C 
ATOM      2  O1  FMT A 205     -21.514  16.591  97.795  0.00  0.00    +0.000 OA
ATOM      3  O2  FMT A 205     -19.796  17.756  97.167  0.00  0.00    +0.000 OA
ENDROOT
TORSDOF 0
REMARK  Name = /Users/chinazoemeh/HopeMScP/data/ligands/BRD4-BD1_BRD4-BD1_91_6KEK/BRD4-BD1_BRD4-BD1_91_6KEK.pdb
REMARK  0 active torsions:
REMARK  status: ('A' for Active; 'I' for Inactive)
REMARK                            x       y       z     vdW  Elec       q    Type
REMARK                         _______ _______ _______ _____ _____    ______ ____
ROOT
ATOM      1  C   FMT A 206      -8.962 -14.538  89.259  0.00  0.00    +0.000 C 
ATOM      2  O1  FMT A 206      -8.103 -13.663  89.121  0.00  0.00    +0.000 OA
ATOM      3  O2  FMT A 206     -10.136 -14.340  89.597  0.00  0.00    +0.000 OA
ENDROOT
TORSDOF 0
REMARK  Name = /Users/chinazoemeh/HopeMScP/data/ligands/BRD4-BD1_BRD4-BD1_91_6KEK/BRD4-BD1_BRD4-BD1_91_6KEK.pdb
REMARK  0 active torsions:
REMARK  status: ('A' for Active; 'I' for Inactive)
REMARK                            x       y       z     vdW  Elec       q    Type
REMARK                         _______ _______ _______ _____ _____    ______ ____
ROOT
ATOM      1  C   FMT A 207     -24.021  20.828  98.337  0.00  0.00    +0.000 C 
ATOM      2  O1  FMT A 207     -25.011  20.899  99.075  0.00  0.00    +0.000 OA
ATOM      3  O2  FMT A 207     -23.900  20.064  97.369  0.00  0.00    +0.000 OA
ENDROOT
TORSDOF 0
