REMARK  Name = /Users/chinazoemeh/HopeMScP/data/ligands/BRD4-BD1_BRD4-BD1_18_5YOU/BRD4-BD1_BRD4-BD1_18_5YOU.pdb
REMARK  7 active torsions:
REMARK  status: ('A' for Active; 'I' for Inactive)
REMARK    1  A    between atoms: C21_5  and  C22_6
REMARK    2  A    between atoms: C02_7  and  C12_15
REMARK    3  A    between atoms: C04_8  and  N03_23
REMARK    4  A    between atoms: C05_9  and  N03_23
REMARK    5  A    between atoms: C08_12  and  C09_13
REMARK    6  A    between atoms: C18_18  and  N17_24
REMARK    7  A    between atoms: C25_21  and  N24_25
REMARK                            x       y       z     vdW  Elec       q    Type
REMARK                         _______ _______ _______ _____ _____    ______ ____
ROOT
ATOM      1  C13 8XX A 201     -24.718  -6.477  78.621  0.00  0.00    +0.000 A 
ATOM      2  C15 8XX A 201     -22.392  -5.888  78.218  0.00  0.00    +0.000 A 
ATOM      3  C21 8XX A 201     -19.837  -6.767  77.316  0.00  0.00    +0.000 C 
ATOM      4  C22 8XX A 201     -19.558  -7.857  78.365  0.00  0.00    +0.000 C 
ATOM      5  C12 8XX A 201     -24.601  -7.464  77.631  0.00  0.00    +0.000 A 
ATOM      6  C14 8XX A 201     -23.608  -5.677  78.915  0.00  0.00    +0.000 A 
ATOM      7  C16 8XX A 201     -22.290  -6.866  77.249  0.00  0.00    +0.000 A 
ATOM      8  C23 8XX A 201     -19.890  -5.396  78.070  0.00  0.00    +0.000 C 
ATOM      9  C25 8XX A 201     -21.424  -3.772  79.194  0.00  0.00    +0.000 C 
ATOM     10  C27 8XX A 201     -23.399  -7.692  76.950  0.00  0.00    +0.000 A 
ATOM     11  N17 8XX A 201     -21.024  -7.052  76.593  0.00  0.00    +0.000 N 
ATOM     12  N24 8XX A 201     -21.221  -5.043  78.493  0.00  0.00    +0.000 N 
ATOM     13  O26 8XX A 201     -18.939  -4.701  78.242  0.00  0.00    +0.000 OA
ENDROOT
BRANCH   5  14
ATOM     14  C02 8XX A 201     -25.778  -8.371  77.341  0.00  0.00    +0.000 C 
ATOM     15  C04 8XX A 201     -27.356  -9.519  75.802  0.00  0.00    +0.000 C 
ATOM     16  N03 8XX A 201     -26.229  -8.615  75.983  0.00  0.00    +0.000 N 
ATOM     17  O01 8XX A 201     -26.265  -8.931  78.268  0.00  0.00    +0.000 OA
BRANCH  16  19
ATOM     18  C10 8XX A 201     -25.448  -5.750  73.744  0.00  0.00    +0.000 A 
ATOM     19  C05 8XX A 201     -25.687  -7.895  74.826  0.00  0.00    +0.000 A 
ATOM     20  C06 8XX A 201     -25.041  -8.505  73.757  0.00  0.00    +0.000 A 
ATOM     21  C07 8XX A 201     -24.591  -7.731  72.685  0.00  0.00    +0.000 A 
ATOM     22  C08 8XX A 201     -24.788  -6.353  72.672  0.00  0.00    +0.000 A 
ATOM     23  C09 8XX A 201     -24.290  -5.494  71.487  0.00  0.00    +0.000 C 
ATOM     24  C11 8XX A 201     -25.892  -6.517  74.810  0.00  0.00    +0.000 A 
ENDBRANCH  16  19
ENDBRANCH   5  14
BRANCH  11  26
ATOM     25  C20 8XX A 201     -21.416  -7.948  74.105  0.00  0.00    +0.000 C 
ATOM     26  C18 8XX A 201     -20.955  -8.036  75.532  0.00  0.00    +0.000 C 
ATOM     27  C19 8XX A 201     -19.922  -7.990  74.410  0.00  0.00    +0.000 C 
ENDBRANCH  11  26
TORSDOF 3
