REMARK  Name = /Users/chinazoemeh/HopeMScP/data/ligands/BRD4-BD1_BRD4-BD1_40_6FNX/BRD4-BD1_BRD4-BD1_40_6FNX.pdb
REMARK  7 active torsions:
REMARK  status: ('A' for Active; 'I' for Inactive)
REMARK    1  A    between atoms: C1_1  and  C2_3
REMARK    2  A    between atoms: C1_5  and  O2_16
REMARK    3  A    between atoms: C2_7  and  O2_8
REMARK    4  A    between atoms: C2_7  and  O2_16
REMARK    5  A    between atoms: O2_8  and  C2_15
REMARK    6  A    between atoms: C1_9  and  C2_11
REMARK    7  A    between atoms: C1_13  and  C2_15
REMARK                            x       y       z     vdW  Elec       q    Type
REMARK                         _______ _______ _______ _____ _____    ______ ____
ROOT
ATOM      1  C1  EDO A 202       2.635   2.839   5.563  0.00  0.00    +0.000 C 
ATOM      2  O1  EDO A 202       1.855   2.503   6.875  0.00  0.00    +0.000 OA
ENDROOT
BRANCH   1   3
ATOM      3  C2  EDO A 202       2.626   1.798   4.415  0.00  0.00    +0.000 C 
ATOM      4  O2  EDO A 202       2.456   0.435   4.771  0.00  0.00    +0.000 OA
ENDBRANCH   1   3
TORSDOF 1
REMARK  Name = /Users/chinazoemeh/HopeMScP/data/ligands/BRD4-BD1_BRD4-BD1_40_6FNX/BRD4-BD1_BRD4-BD1_40_6FNX.pdb
REMARK  7 active torsions:
REMARK  status: ('A' for Active; 'I' for Inactive)
REMARK    1  A    between atoms: C1_1  and  C2_3
REMARK    2  A    between atoms: C1_5  and  O2_16
REMARK    3  A    between atoms: C2_7  and  O2_8
REMARK    4  A    between atoms: C2_7  and  O2_16
REMARK    5  A    between atoms: O2_8  and  C2_15
REMARK    6  A    between atoms: C1_9  and  C2_11
REMARK    7  A    between atoms: C1_13  and  C2_15
REMARK                            x       y       z     vdW  Elec       q    Type
REMARK                         _______ _______ _______ _____ _____    ______ ____
ROOT
ATOM      1  C2  EDO A 203      -3.360  -5.234 -18.711  0.00  0.00    +0.000 C 
ENDROOT
BRANCH   1   2
ATOM      2  O2  EDO A 203      -2.914  -4.208 -19.636  0.00  0.00    +0.000 OA
BRANCH   2   3
ATOM      3  C2  EDO A 205      -3.810  -4.881 -20.539  0.00  0.00    +0.000 C 
BRANCH   3   4
ATOM      4  C1  EDO A 205      -4.173  -3.481 -20.336  0.00  0.00    +0.000 C 
ATOM      5  O1  EDO A 205      -4.088  -2.898 -19.063  0.00  0.00    +0.000 OA
ENDBRANCH   3   4
ENDBRANCH   2   3
ENDBRANCH   1   2
BRANCH   1   6
ATOM      6  O2  EDO A 205      -3.759  -5.510 -19.242  0.00  0.00    +0.000 OA
BRANCH   6   7
ATOM      7  C1  EDO A 203      -4.755  -5.822 -19.070  0.00  0.00    +0.000 C 
ATOM      8  O1  EDO A 203      -5.718  -4.752 -19.260  0.00  0.00    +0.000 OA
ENDBRANCH   6   7
ENDBRANCH   1   6
TORSDOF 5
REMARK  Name = /Users/chinazoemeh/HopeMScP/data/ligands/BRD4-BD1_BRD4-BD1_40_6FNX/BRD4-BD1_BRD4-BD1_40_6FNX.pdb
REMARK  7 active torsions:
REMARK  status: ('A' for Active; 'I' for Inactive)
REMARK    1  A    between atoms: C1_1  and  C2_3
REMARK    2  A    between atoms: C1_5  and  O2_16
REMARK    3  A    between atoms: C2_7  and  O2_8
REMARK    4  A    between atoms: C2_7  and  O2_16
REMARK    5  A    between atoms: O2_8  and  C2_15
REMARK    6  A    between atoms: C1_9  and  C2_11
REMARK    7  A    between atoms: C1_13  and  C2_15
REMARK                            x       y       z     vdW  Elec       q    Type
REMARK                         _______ _______ _______ _____ _____    ______ ____
ROOT
ATOM      1  C1  EDO A 204     -15.151 -20.520  -7.276  0.00  0.00    +0.000 C 
ATOM      2  O1  EDO A 204     -16.653 -20.515  -6.903  0.00  0.00    +0.000 OA
ENDROOT
BRANCH   1   3
ATOM      3  C2  EDO A 204     -14.936 -20.112  -8.753  0.00  0.00    +0.000 C 
ATOM      4  O2  EDO A 204     -13.875 -19.663  -9.621  0.00  0.00    +0.000 OA
ENDBRANCH   1   3
TORSDOF 1
