REMARK  Name = /Users/chinazoemeh/HopeMScP/data/ligands/BRD4-BD1_BRD4-BD1_93_6G0G/BRD4-BD1_BRD4-BD1_93_6G0G.pdb
REMARK  1 active torsions:
REMARK  status: ('A' for Active; 'I' for Inactive)
REMARK    1  A    between atoms: C1_1  and  C2_3
REMARK                            x       y       z     vdW  Elec       q    Type
REMARK                         _______ _______ _______ _____ _____    ______ ____
ROOT
ATOM      1  C1  EDO A 201     -20.493 128.115   1.032  0.00  0.00    +0.000 C 
ATOM      2  O1  EDO A 201     -19.472 129.053   1.198  0.00  0.00    +0.000 OA
ENDROOT
BRANCH   1   3
ATOM      3  C2  EDO A 201     -21.262 127.996   2.370  0.00  0.00    +0.000 C 
ATOM      4  O2  EDO A 201     -20.373 127.544   3.335  0.00  0.00    +0.000 OA
ENDBRANCH   1   3
TORSDOF 1
