REMARK  Name = /Users/chinazoemeh/HopeMScP/data/ligands/BRD4-BD1_BRD4-BD1_12_7MR8/BRD4-BD1_BRD4-BD1_12_7MR8.pdb
REMARK  2 active torsions:
REMARK  status: ('A' for Active; 'I' for Inactive)
REMARK    1  A    between atoms: C1_1  and  C2_3
REMARK    2  A    between atoms: C1_5  and  C2_7
REMARK                            x       y       z     vdW  Elec       q    Type
REMARK                         _______ _______ _______ _____ _____    ______ ____
ROOT
ATOM      1  C1  EDO A 202       3.025  -6.767  12.471  0.00  0.00    +0.000 C 
ATOM      2  O1  EDO A 202       1.977  -5.867  12.087  0.00  0.00    +0.000 OA
ENDROOT
BRANCH   1   3
ATOM      3  C2  EDO A 202       2.567  -8.211  12.292  0.00  0.00    +0.000 C 
ATOM      4  O2  EDO A 202       1.419  -8.449  13.114  0.00  0.00    +0.000 OA
ENDBRANCH   1   3
TORSDOF 1
REMARK  Name = /Users/chinazoemeh/HopeMScP/data/ligands/BRD4-BD1_BRD4-BD1_12_7MR8/BRD4-BD1_BRD4-BD1_12_7MR8.pdb
REMARK  2 active torsions:
REMARK  status: ('A' for Active; 'I' for Inactive)
REMARK    1  A    between atoms: C1_1  and  C2_3
REMARK    2  A    between atoms: C1_5  and  C2_7
REMARK                            x       y       z     vdW  Elec       q    Type
REMARK                         _______ _______ _______ _____ _____    ______ ____
ROOT
ATOM      1  C1  EDO A 203      -4.888   9.861   8.955  0.00  0.00    +0.000 C 
ATOM      2  O1  EDO A 203      -5.452  11.001   9.614  0.00  0.00    +0.000 OA
ENDROOT
BRANCH   1   3
ATOM      3  C2  EDO A 203      -4.002   9.097   9.933  0.00  0.00    +0.000 C 
ATOM      4  O2  EDO A 203      -2.877   9.900  10.308  0.00  0.00    +0.000 OA
ENDBRANCH   1   3
TORSDOF 1
