REMARK  Name = /Users/chinazoemeh/HopeMScP/data/ligands/BRD4-BD1_BRD4-BD1_46_7MR6/BRD4-BD1_BRD4-BD1_46_7MR6.pdb
REMARK  29 active torsions:
REMARK  status: ('A' for Active; 'I' for Inactive)
REMARK    1  A    between atoms: C10_1  and  C11_14
REMARK    2  A    between atoms: C20_3  and  C22_4
REMARK    3  A    between atoms: C22_4  and  C23_19
REMARK    4  A    between atoms: C26_5  and  C25_20
REMARK    5  A    between atoms: C26_5  and  O27_86
REMARK    6  A    between atoms: C28_6  and  C29_21
REMARK    7  A    between atoms: C28_6  and  O27_86
REMARK    8  A    between atoms: C07_11  and  N06_70
REMARK    9  A    between atoms: C14_15  and  N13_71
REMARK   10  A    between atoms: C23_19  and  O24_85
REMARK   11  A    between atoms: C25_20  and  O24_85
REMARK   12  A    between atoms: C29_21  and  O30_87
REMARK   13  A    between atoms: C31_22  and  C32_23
REMARK   14  A    between atoms: C31_22  and  O30_87
REMARK   15  A    between atoms: C32_23  and  O33_88
REMARK   16  A    between atoms: C34_24  and  C35_25
REMARK   17  A    between atoms: C34_24  and  O33_88
REMARK   18  A    between atoms: C35_25  and  C36_26
REMARK   19  A    between atoms: C41_29  and  N44_74
REMARK   20  A    between atoms: C45_32  and  C47_33
REMARK   21  A    between atoms: C50_36  and  N51_75
REMARK   22  A    between atoms: C56_39  and  N55_77
REMARK   23  A    between atoms: C61_43  and  N62_78
REMARK   24  A    between atoms: C66_44  and  S63_95
REMARK   25  A    between atoms: C84_57  and  N83_81
REMARK   26  A    between atoms: C86_59  and  N87_82
REMARK   27  A    between atoms: C91_60  and  S88_96
REMARK   28  A    between atoms: N62_78  and  S63_95
REMARK   29  A    between atoms: N87_82  and  S88_96
REMARK                            x       y       z     vdW  Elec       q    Type
REMARK                         _______ _______ _______ _____ _____    ______ ____
ROOT
ATOM      1  C28 ZMV B 201      -6.021  -7.363   2.200  0.00  0.00    +0.000 C 
ENDROOT
BRANCH   1   2
ATOM      2  C29 ZMV B 201      -7.253  -6.743   2.851  0.00  0.00    +0.000 C 
BRANCH   2   3
ATOM      3  O30 ZMV B 201      -7.392  -7.239   4.153  0.00  0.00    +0.000 OA
BRANCH   3   4
ATOM      4  C31 ZMV B 201      -7.415  -8.636   4.250  0.00  0.00    +0.000 C 
BRANCH   4   5
ATOM      5  C32 ZMV B 201      -8.434  -9.035   5.319  0.00  0.00    +0.000 C 
BRANCH   5   6
ATOM      6  O33 ZMV B 201      -9.697  -8.590   4.914  0.00  0.00    +0.000 OA
BRANCH   6   7
ATOM      7  C34 ZMV B 201     -10.246  -9.339   3.869  0.00  0.00    +0.000 C 
BRANCH   7   8
ATOM      8  C35 ZMV B 201     -11.488 -10.061   4.399  0.00  0.00    +0.000 C 
BRANCH   8   9
ATOM      9  C36 ZMV B 201     -12.603  -9.067   4.696  0.00  0.00    +0.000 C 
ATOM     10  C39 ZMV B 201     -13.961  -9.938   2.663  0.00  0.00    +0.000 C 
ATOM     11  C40 ZMV B 201     -14.115  -9.118   1.391  0.00  0.00    +0.000 C 
ATOM     12  C41 ZMV B 201     -15.180  -8.091   1.484  0.00  0.00    +0.000 C 
ATOM     13  C42 ZMV B 201     -15.145  -7.278   2.725  0.00  0.00    +0.000 C 
ATOM     14  C43 ZMV B 201     -14.943  -8.114   3.991  0.00  0.00    +0.000 C 
ATOM     15  N38 ZMV B 201     -13.772  -9.038   3.839  0.00  0.00    +0.000 N 
ATOM     16  O37 ZMV B 201     -12.504  -8.315   5.607  0.00  0.00    +0.000 OA
BRANCH  12  18
ATOM     17  C45 ZMV B 201     -15.563  -7.509  -0.962  0.00  0.00    +0.000 C 
ATOM     18  N44 ZMV B 201     -14.985  -7.195   0.348  0.00  0.00    +0.000 NA
ATOM     19  O46 ZMV B 201     -16.208  -8.486  -1.137  0.00  0.00    +0.000 OA
BRANCH  17  20
ATOM     20  C47 ZMV B 201     -15.322  -6.544  -2.132  0.00  0.00    +0.000 A 
ATOM     21  C48 ZMV B 201     -16.396  -5.931  -2.753  0.00  0.00    +0.000 A 
ATOM     22  C49 ZMV B 201     -16.165  -5.060  -3.808  0.00  0.00    +0.000 A 
ATOM     23  C50 ZMV B 201     -14.864  -4.806  -4.225  0.00  0.00    +0.000 A 
ATOM     24  C75 ZMV B 201     -13.797  -5.426  -3.610  0.00  0.00    +0.000 A 
ATOM     25  C76 ZMV B 201     -14.023  -6.295  -2.555  0.00  0.00    +0.000 A 
ATOM     26  F77 ZMV B 201     -12.969  -6.897  -1.938  0.00  0.00    +0.000 F 
BRANCH  23  32
ATOM     27  C52 ZMV B 201     -13.459  -3.380  -5.897  0.00  0.00    +0.000 C 
ATOM     28  C54 ZMV B 201     -11.178  -3.185  -5.935  0.00  0.00    +0.000 C 
ATOM     29  C71 ZMV B 201     -11.295  -2.360  -7.046  0.00  0.00    +0.000 C 
ATOM     30  C72 ZMV B 201     -10.071  -1.763  -7.706  0.00  0.00    +0.000 C 
ATOM     31  C73 ZMV B 201     -12.550  -2.070  -7.556  0.00  0.00    +0.000 C 
ATOM     32  N51 ZMV B 201     -14.702  -3.886  -5.343  0.00  0.00    +0.000 NA
ATOM     33  N53 ZMV B 201     -12.276  -3.672  -5.380  0.00  0.00    +0.000 NA
ATOM     34  N55 ZMV B 201      -9.844  -3.477  -5.433  0.00  0.00    +0.000 NA
ATOM     35  N74 ZMV B 201     -13.585  -2.607  -6.955  0.00  0.00    +0.000 NA
BRANCH  34  36
ATOM     36  C56 ZMV B 201      -9.508  -3.999  -4.117  0.00  0.00    +0.000 A 
ATOM     37  C57 ZMV B 201      -8.202  -4.419  -3.946  0.00  0.00    +0.000 A 
ATOM     38  C58 ZMV B 201      -7.786  -4.912  -2.726  0.00  0.00    +0.000 A 
ATOM     39  C59 ZMV B 201      -8.694  -4.974  -1.689  0.00  0.00    +0.000 A 
ATOM     40  C61 ZMV B 201      -9.998  -4.553  -1.849  0.00  0.00    +0.000 A 
ATOM     41  C70 ZMV B 201     -10.420  -4.052  -3.067  0.00  0.00    +0.000 A 
ATOM     42 CL60 ZMV B 201      -8.190  -5.599  -0.099  0.00  0.00    +0.000 Cl
BRANCH  40  43
ATOM     43  N62 ZMV B 201     -10.889  -4.671  -0.704  0.00  0.00    +0.000 NA
BRANCH  43  46
ATOM     44  O64 ZMV B 201     -13.136  -3.947   0.442  0.00  0.00    +0.000 OA
ATOM     45  O65 ZMV B 201     -12.473  -2.607  -1.283  0.00  0.00    +0.000 OA
ATOM     46  S63 ZMV B 201     -11.930  -3.416  -0.197  0.00  0.00    +0.000 S 
BRANCH  46  47
ATOM     47  C66 ZMV B 201     -11.066  -2.349   0.986  0.00  0.00    +0.000 C 
ATOM     48  C67 ZMV B 201     -12.075  -1.361   1.575  0.00  0.00    +0.000 C 
ATOM     49  C68 ZMV B 201     -10.012  -1.596   0.201  0.00  0.00    +0.000 C 
ATOM     50  C69 ZMV B 201     -10.420  -3.171   2.101  0.00  0.00    +0.000 C 
ENDBRANCH  46  47
ENDBRANCH  43  46
ENDBRANCH  40  43
ENDBRANCH  34  36
ENDBRANCH  23  32
ENDBRANCH  17  20
ENDBRANCH  12  18
ENDBRANCH   8   9
ENDBRANCH   7   8
ENDBRANCH   6   7
ENDBRANCH   5   6
ENDBRANCH   4   5
ENDBRANCH   3   4
ENDBRANCH   2   3
ENDBRANCH   1   2
BRANCH   1  51
ATOM     51  O27 ZMV B 201      -4.855  -6.950   2.866  0.00  0.00    +0.000 OA
BRANCH  51  52
ATOM     52  C26 ZMV B 201      -3.774  -7.823   2.668  0.00  0.00    +0.000 C 
BRANCH  52  53
ATOM     53  C25 ZMV B 201      -2.478  -7.024   2.495  0.00  0.00    +0.000 C 
BRANCH  53  54
ATOM     54  O24 ZMV B 201      -1.507  -7.517   3.381  0.00  0.00    +0.000 OA
BRANCH  54  55
ATOM     55  C23 ZMV B 201      -0.765  -6.593   4.140  0.00  0.00    +0.000 C 
BRANCH  55  56
ATOM     56  C22 ZMV B 201      -1.584  -5.372   4.560  0.00  0.00    +0.000 C 
BRANCH  56  58
ATOM     57  C15 ZMV B 201      -4.348  -1.806   4.277  0.00  0.00    +0.000 C 
ATOM     58  C20 ZMV B 201      -1.281  -4.152   3.680  0.00  0.00    +0.000 C 
ATOM     59  C14 ZMV B 201      -3.368  -0.710   4.296  0.00  0.00    +0.000 C 
ATOM     60  C16 ZMV B 201      -3.622  -3.141   4.197  0.00  0.00    +0.000 C 
ATOM     61  C18 ZMV B 201      -2.012  -1.885   2.639  0.00  0.00    +0.000 C 
ATOM     62  C19 ZMV B 201      -2.704  -0.570   2.989  0.00  0.00    +0.000 C 
ATOM     63  N17 ZMV B 201      -2.276  -3.090   3.513  0.00  0.00    +0.000 N 
ATOM     64  O21 ZMV B 201      -0.233  -4.083   3.126  0.00  0.00    +0.000 OA
BRANCH  59  66
ATOM     65  C11 ZMV B 201      -3.094   1.512   5.274  0.00  0.00    +0.000 C 
ATOM     66  N13 ZMV B 201      -4.005   0.525   4.747  0.00  0.00    +0.000 NA
ATOM     67  O12 ZMV B 201      -1.922   1.282   5.343  0.00  0.00    +0.000 OA
BRANCH  65  68
ATOM     68  C10 ZMV B 201      -3.609   2.807   5.880  0.00  0.00    +0.000 A 
ATOM     69  C07 ZMV B 201      -4.396   5.098   7.139  0.00  0.00    +0.000 A 
ATOM     70  C08 ZMV B 201      -3.060   4.902   6.831  0.00  0.00    +0.000 A 
ATOM     71  C09 ZMV B 201      -2.650   3.738   6.212  0.00  0.00    +0.000 A 
ATOM     72  C78 ZMV B 201      -4.945   2.990   6.200  0.00  0.00    +0.000 A 
ATOM     73  C80 ZMV B 201      -5.367   4.166   6.822  0.00  0.00    +0.000 A 
ATOM     74  F79 ZMV B 201      -5.872   2.047   5.896  0.00  0.00    +0.000 F 
BRANCH  69  81
ATOM     75  C01 ZMV B 201      -9.430   8.027  10.359  0.00  0.00    +0.000 C 
ATOM     76  C02 ZMV B 201      -8.134   7.586   9.688  0.00  0.00    +0.000 C 
ATOM     77  C03 ZMV B 201      -6.876   7.989  10.107  0.00  0.00    +0.000 C 
ATOM     78  C05 ZMV B 201      -5.930   6.746   8.452  0.00  0.00    +0.000 C 
ATOM     79  C82 ZMV B 201      -8.201   6.746   8.619  0.00  0.00    +0.000 C 
ATOM     80  N04 ZMV B 201      -5.810   7.541   9.479  0.00  0.00    +0.000 NA
ATOM     81  N06 ZMV B 201      -4.703   6.359   7.792  0.00  0.00    +0.000 NA
ATOM     82  N81 ZMV B 201      -7.102   6.340   8.019  0.00  0.00    +0.000 NA
ATOM     83  N83 ZMV B 201      -9.547   6.354   8.234  0.00  0.00    +0.000 NA
BRANCH  83  84
ATOM     84  C84 ZMV B 201      -9.844   5.542   7.070  0.00  0.00    +0.000 A 
ATOM     85  C85 ZMV B 201     -11.017   4.803   7.152  0.00  0.00    +0.000 A 
ATOM     86  C86 ZMV B 201     -11.373   4.009   6.088  0.00  0.00    +0.000 A 
ATOM     87  C95 ZMV B 201     -10.573   3.963   4.967  0.00  0.00    +0.000 A 
ATOM     88  C97 ZMV B 201      -9.390   4.697   4.876  0.00  0.00    +0.000 A 
ATOM     89  C98 ZMV B 201      -9.024   5.510   5.947  0.00  0.00    +0.000 A 
ATOM     90 CL96 ZMV B 201     -11.113   2.919   3.624  0.00  0.00    +0.000 Cl
BRANCH  86  91
ATOM     91  N87 ZMV B 201     -12.592   3.204   6.134  0.00  0.00    +0.000 NA
BRANCH  91  94
ATOM     92  O89 ZMV B 201     -13.531   1.112   7.367  0.00  0.00    +0.000 OA
ATOM     93  O90 ZMV B 201     -12.450   2.602   8.726  0.00  0.00    +0.000 OA
ATOM     94  S88 ZMV B 201     -13.296   2.541   7.540  0.00  0.00    +0.000 S 
BRANCH  94  95
ATOM     95  C91 ZMV B 201     -14.846   3.476   7.858  0.00  0.00    +0.000 C 
ATOM     96  C92 ZMV B 201     -15.512   3.681   6.489  0.00  0.00    +0.000 C 
ATOM     97  C93 ZMV B 201     -15.788   2.724   8.795  0.00  0.00    +0.000 C 
ATOM     98  C94 ZMV B 201     -14.482   4.819   8.490  0.00  0.00    +0.000 C 
ENDBRANCH  94  95
ENDBRANCH  91  94
ENDBRANCH  86  91
ENDBRANCH  83  84
ENDBRANCH  69  81
ENDBRANCH  65  68
ENDBRANCH  59  66
ENDBRANCH  56  58
ENDBRANCH  55  56
ENDBRANCH  54  55
ENDBRANCH  53  54
ENDBRANCH  52  53
ENDBRANCH  51  52
ENDBRANCH   1  51
TORSDOF 29
