REMARK  Name = /Users/chinazoemeh/HopeMScP/data/ligands/BRD4-BD1_BRD4-BD1_109_6ULS/BRD4-BD1_BRD4-BD1_109_6ULS.pdb
REMARK  12 active torsions:
REMARK  status: ('A' for Active; 'I' for Inactive)
REMARK    1  A    between atoms: NZ_4  and  CE_5
REMARK    2  A    between atoms: CE_5  and  CD_6
REMARK    3  A    between atoms: CD_6  and  CG_7
REMARK    4  A    between atoms: CG_7  and  CB_8
REMARK    5  A    between atoms: CB_8  and  CA_9
REMARK    6  A    between atoms: CA_9  and  C_11
REMARK    7  A    between atoms: NZ_16  and  CE_17
REMARK    8  A    between atoms: CE_17  and  CD_18
REMARK    9  A    between atoms: CD_18  and  CG_19
REMARK   10  A    between atoms: CG_19  and  CB_20
REMARK   11  A    between atoms: CB_20  and  CA_21
REMARK   12  A    between atoms: CA_21  and  C_23
REMARK                            x       y       z     vdW  Elec       q    Type
REMARK                         _______ _______ _______ _____ _____    ______ ____
ROOT
ATOM      1  CD  ALY B   4      16.464 -12.078  -5.345  0.00  0.00    +0.000 C 
ENDROOT
BRANCH   1   2
ATOM      2  CE  ALY B   4      16.295 -12.501  -6.813  0.00  0.00    +0.000 C 
BRANCH   2   6
ATOM      3  OH  ALY B   4      13.711 -13.323  -7.597  0.00  0.00    +0.000 OA
ATOM      4  CH  ALY B   4      14.079 -12.169  -7.861  0.00  0.00    +0.000 C 
ATOM      5  CH3 ALY B   4      13.150 -11.223  -8.592  0.00  0.00    +0.000 C 
ATOM      6  NZ  ALY B   4      15.309 -11.684  -7.509  0.00  0.00    +0.000 NA
ENDBRANCH   2   6
ENDBRANCH   1   2
BRANCH   1   7
ATOM      7  CG  ALY B   4      17.533 -12.902  -4.658  0.00  0.00    +0.000 C 
BRANCH   7   8
ATOM      8  CB  ALY B   4      17.743 -12.346  -3.255  0.00  0.00    +0.000 C 
BRANCH   8   9
ATOM      9  CA  ALY B   4      18.812 -13.099  -2.439  0.00  0.00    +0.000 C 
ATOM     10  N   ALY B   4      18.458 -14.494  -2.247  0.00  0.00    +0.000 NA
BRANCH   9  11
ATOM     11  C   ALY B   4      19.041 -12.289  -1.169  0.00  0.00    +0.000 C 
ATOM     12  O   ALY B   4      19.509 -11.149  -1.189  0.00  0.00    +0.000 OA
ENDBRANCH   9  11
ENDBRANCH   8   9
ENDBRANCH   7   8
ENDBRANCH   1   7
TORSDOF 6
REMARK  Name = /Users/chinazoemeh/HopeMScP/data/ligands/BRD4-BD1_BRD4-BD1_109_6ULS/BRD4-BD1_BRD4-BD1_109_6ULS.pdb
REMARK  12 active torsions:
REMARK  status: ('A' for Active; 'I' for Inactive)
REMARK    1  A    between atoms: NZ_4  and  CE_5
REMARK    2  A    between atoms: CE_5  and  CD_6
REMARK    3  A    between atoms: CD_6  and  CG_7
REMARK    4  A    between atoms: CG_7  and  CB_8
REMARK    5  A    between atoms: CB_8  and  CA_9
REMARK    6  A    between atoms: CA_9  and  C_11
REMARK    7  A    between atoms: NZ_16  and  CE_17
REMARK    8  A    between atoms: CE_17  and  CD_18
REMARK    9  A    between atoms: CD_18  and  CG_19
REMARK   10  A    between atoms: CG_19  and  CB_20
REMARK   11  A    between atoms: CB_20  and  CA_21
REMARK   12  A    between atoms: CA_21  and  C_23
REMARK                            x       y       z     vdW  Elec       q    Type
REMARK                         _______ _______ _______ _____ _____    ______ ____
ROOT
ATOM      1  CD  ALY B   7      15.694  -7.947  -1.686  0.00  0.00    +0.000 C 
ENDROOT
BRANCH   1   2
ATOM      2  CE  ALY B   7      16.338  -9.041  -2.536  0.00  0.00    +0.000 C 
BRANCH   2   6
ATOM      3  OH  ALY B   7      16.121  -8.490  -5.233  0.00  0.00    +0.000 OA
ATOM      4  CH  ALY B   7      17.168  -8.144  -4.669  0.00  0.00    +0.000 C 
ATOM      5  CH3 ALY B   7      18.300  -7.459  -5.391  0.00  0.00    +0.000 C 
ATOM      6  NZ  ALY B   7      17.327  -8.419  -3.339  0.00  0.00    +0.000 NA
ENDBRANCH   2   6
ENDBRANCH   1   2
BRANCH   1   7
ATOM      7  CG  ALY B   7      14.844  -8.565  -0.611  0.00  0.00    +0.000 C 
BRANCH   7   8
ATOM      8  CB  ALY B   7      14.235  -7.435   0.182  0.00  0.00    +0.000 C 
BRANCH   8   9
ATOM      9  CA  ALY B   7      15.132  -6.902   1.297  0.00  0.00    +0.000 C 
ATOM     10  N   ALY B   7      15.737  -7.928   2.131  0.00  0.00    +0.000 NA
BRANCH   9  11
ATOM     11  C   ALY B   7      14.268  -5.996   2.151  0.00  0.00    +0.000 C 
ATOM     12  O   ALY B   7      13.371  -6.418   2.882  0.00  0.00    +0.000 OA
ENDBRANCH   9  11
ENDBRANCH   8   9
ENDBRANCH   7   8
ENDBRANCH   1   7
TORSDOF 6
