REMARK  Name = /Users/chinazoemeh/HopeMScP/data/ligands/BRD4-BD1_BRD4-BD1_5_7EHY/BRD4-BD1_BRD4-BD1_5_7EHY.pdb
REMARK  3 active torsions:
REMARK  status: ('A' for Active; 'I' for Inactive)
REMARK    1  A    between atoms: C15_5  and  C17_6
REMARK    2  A    between atoms: C19_8  and  C23_12
REMARK    3  A    between atoms: C6_18  and  N7_25
REMARK                            x       y       z     vdW  Elec       q    Type
REMARK                         _______ _______ _______ _____ _____    ______ ____
ROOT
ATOM      1  C1  YD8 A 201      28.461  30.724  41.908  0.00  0.00    +0.000 A 
ATOM      2  C15 YD8 A 201      25.171  30.582  40.656  0.00  0.00    +0.000 A 
ATOM      3  C2  YD8 A 201      27.191  30.770  41.334  0.00  0.00    +0.000 A 
ATOM      4  C3  YD8 A 201      26.892  31.715  40.232  0.00  0.00    +0.000 A 
ATOM      5  C4  YD8 A 201      27.914  32.537  39.811  0.00  0.00    +0.000 A 
ATOM      6  C5  YD8 A 201      29.164  32.469  40.413  0.00  0.00    +0.000 A 
ATOM      7  C6  YD8 A 201      29.452  31.581  41.442  0.00  0.00    +0.000 A 
ATOM      8  N14 YD8 A 201      25.609  31.559  39.856  0.00  0.00    +0.000 NA
ATOM      9  N16 YD8 A 201      26.049  30.095  41.559  0.00  0.00    +0.000 NA
ENDROOT
BRANCH   7  16
ATOM     10  C11 YD8 A 201      32.424  30.205  43.071  0.00  0.00    +0.000 C 
ATOM     11  C12 YD8 A 201      31.080  30.928  43.221  0.00  0.00    +0.000 C 
ATOM     12  C13 YD8 A 201      34.734  30.897  42.914  0.00  0.00    +0.000 C 
ATOM     13  C8  YD8 A 201      31.767  32.302  41.177  0.00  0.00    +0.000 C 
ATOM     14  C9  YD8 A 201      33.044  32.308  42.004  0.00  0.00    +0.000 C 
ATOM     15  N10 YD8 A 201      33.428  30.912  42.245  0.00  0.00    +0.000 NA
ATOM     16  N7  YD8 A 201      30.755  31.591  41.957  0.00  0.00    +0.000 N 
ENDBRANCH   7  16
BRANCH   2  17
ATOM     17  C17 YD8 A 201      23.790  30.025  40.673  0.00  0.00    +0.000 A 
ATOM     18  C18 YD8 A 201      22.597  30.573  39.985  0.00  0.00    +0.000 A 
ATOM     19  C19 YD8 A 201      21.599  29.534  40.405  0.00  0.00    +0.000 A 
ATOM     20  C20 YD8 A 201      22.278  28.560  41.295  0.00  0.00    +0.000 A 
ATOM     21  C22 YD8 A 201      21.655  27.364  41.956  0.00  0.00    +0.000 C 
ATOM     22  C26 YD8 A 201      22.519  31.806  39.102  0.00  0.00    +0.000 C 
ATOM     23  N21 YD8 A 201      23.573  28.908  41.381  0.00  0.00    +0.000 NA
BRANCH  19  24
ATOM     24  C23 YD8 A 201      20.138  29.465  40.150  0.00  0.00    +0.000 C 
ATOM     25  C24 YD8 A 201      19.473  30.809  40.147  0.00  0.00    +0.000 C 
ATOM     26  O25 YD8 A 201      19.499  28.439  40.069  0.00  0.00    +0.000 OA
ENDBRANCH  19  24
ENDBRANCH   2  17
TORSDOF 3
