REMARK  Name = /Users/chinazoemeh/HopeMScP/data/ligands/BRD4-BD1_BRD4-BD1_63_6YQO/BRD4-BD1_BRD4-BD1_63_6YQO.pdb
REMARK  3 active torsions:
REMARK  status: ('A' for Active; 'I' for Inactive)
REMARK    1  A    between atoms: C1_1  and  C2_3
REMARK    2  A    between atoms: C1_5  and  C2_7
REMARK    3  A    between atoms: C1_9  and  C2_11
REMARK                            x       y       z     vdW  Elec       q    Type
REMARK                         _______ _______ _______ _____ _____    ______ ____
ROOT
ATOM      1  C1  EDO A 201      43.064  19.412   6.029  0.00  0.00    +0.000 C 
ATOM      2  O1  EDO A 201      43.466  18.331   6.874  0.00  0.00    +0.000 OA
ENDROOT
BRANCH   1   3
ATOM      3  C2  EDO A 201      42.114  20.319   6.797  0.00  0.00    +0.000 C 
ATOM      4  O2  EDO A 201      40.920  19.601   7.138  0.00  0.00    +0.000 OA
ENDBRANCH   1   3
TORSDOF 1
REMARK  Name = /Users/chinazoemeh/HopeMScP/data/ligands/BRD4-BD1_BRD4-BD1_63_6YQO/BRD4-BD1_BRD4-BD1_63_6YQO.pdb
REMARK  3 active torsions:
REMARK  status: ('A' for Active; 'I' for Inactive)
REMARK    1  A    between atoms: C1_1  and  C2_3
REMARK    2  A    between atoms: C1_5  and  C2_7
REMARK    3  A    between atoms: C1_9  and  C2_11
REMARK                            x       y       z     vdW  Elec       q    Type
REMARK                         _______ _______ _______ _____ _____    ______ ____
ROOT
ATOM      1  C1  EDO A 202      25.615  32.494  19.528  0.00  0.00    +0.000 C 
ATOM      2  O1  EDO A 202      26.159  32.899  20.789  0.00  0.00    +0.000 OA
ENDROOT
BRANCH   1   3
ATOM      3  C2  EDO A 202      24.581  33.510  19.052  0.00  0.00    +0.000 C 
ATOM      4  O2  EDO A 202      23.401  33.453  19.866  0.00  0.00    +0.000 OA
ENDBRANCH   1   3
TORSDOF 1
REMARK  Name = /Users/chinazoemeh/HopeMScP/data/ligands/BRD4-BD1_BRD4-BD1_63_6YQO/BRD4-BD1_BRD4-BD1_63_6YQO.pdb
REMARK  3 active torsions:
REMARK  status: ('A' for Active; 'I' for Inactive)
REMARK    1  A    between atoms: C1_1  and  C2_3
REMARK    2  A    between atoms: C1_5  and  C2_7
REMARK    3  A    between atoms: C1_9  and  C2_11
REMARK                            x       y       z     vdW  Elec       q    Type
REMARK                         _______ _______ _______ _____ _____    ______ ____
ROOT
ATOM      1  C1  EDO A 203      24.573  42.228   1.808  0.00  0.00    +0.000 C 
ATOM      2  O1  EDO A 203      23.599  41.995   2.830  0.00  0.00    +0.000 OA
ENDROOT
BRANCH   1   3
ATOM      3  C2  EDO A 203      24.162  41.483   0.546  0.00  0.00    +0.000 C 
ATOM      4  O2  EDO A 203      24.000  40.095   0.849  0.00  0.00    +0.000 OA
ENDBRANCH   1   3
TORSDOF 1
