REMARK  Name = /Users/chinazoemeh/HopeMScP/data/ligands/BRD4-BD1_BRD4-BD1_36_6CZV/BRD4-BD1_BRD4-BD1_36_6CZV.pdb
REMARK  2 active torsions:
REMARK  status: ('A' for Active; 'I' for Inactive)
REMARK    1  A    between atoms: C1_1  and  C2_3
REMARK    2  A    between atoms: C1_5  and  C2_7
REMARK                            x       y       z     vdW  Elec       q    Type
REMARK                         _______ _______ _______ _____ _____    ______ ____
ROOT
ATOM      1  C1  EDO A 202      -9.891   8.052 -23.084  0.00  0.00    +0.000 C 
ATOM      2  O1  EDO A 202      -9.829   7.914 -21.667  0.00  0.00    +0.000 OA
ENDROOT
BRANCH   1   3
ATOM      3  C2  EDO A 202      -9.907   9.320 -23.853  0.00  0.00    +0.000 C 
ATOM      4  O2  EDO A 202      -9.801   8.835 -25.201  0.00  0.00    +0.000 OA
ENDBRANCH   1   3
TORSDOF 1
REMARK  Name = /Users/chinazoemeh/HopeMScP/data/ligands/BRD4-BD1_BRD4-BD1_36_6CZV/BRD4-BD1_BRD4-BD1_36_6CZV.pdb
REMARK  2 active torsions:
REMARK  status: ('A' for Active; 'I' for Inactive)
REMARK    1  A    between atoms: C1_1  and  C2_3
REMARK    2  A    between atoms: C1_5  and  C2_7
REMARK                            x       y       z     vdW  Elec       q    Type
REMARK                         _______ _______ _______ _____ _____    ______ ____
ROOT
ATOM      1  C1  EDO A 203       0.767   8.996   3.348  0.00  0.00    +0.000 C 
ATOM      2  O1  EDO A 203      -0.351   9.102   4.275  0.00  0.00    +0.000 OA
ENDROOT
BRANCH   1   3
ATOM      3  C2  EDO A 203       0.271   8.615   1.950  0.00  0.00    +0.000 C 
ATOM      4  O2  EDO A 203       1.110   7.734   1.138  0.00  0.00    +0.000 OA
ENDBRANCH   1   3
TORSDOF 1
