REMARK  Name = /Users/chinazoemeh/HopeMScP/data/ligands/BRD4-BD1_BRD4-BD1_13_7JKX/BRD4-BD1_BRD4-BD1_13_7JKX.pdb
REMARK  8 active torsions:
REMARK  status: ('A' for Active; 'I' for Inactive)
REMARK    1  A    between atoms: C1_1  and  N4_26
REMARK    2  A    between atoms: C3_3  and  C23_27
REMARK    3  A    between atoms: C9_9  and  C10_10
REMARK    4  A    between atoms: C9_9  and  C15_15
REMARK    5  A    between atoms: C9_9  and  N2_24
REMARK    6  A    between atoms: C21_21  and  S1_33
REMARK    7  A    between atoms: N4_26  and  S1_33
REMARK    8  A    between atoms: C25_29  and  N5_36
REMARK                            x       y       z     vdW  Elec       q    Type
REMARK                         _______ _______ _______ _____ _____    ______ ____
ROOT
ATOM      1  C1  Y36 A 201       9.611  -7.446   0.904  0.00  0.00    +0.000 A 
ATOM      2  C2  Y36 A 201      10.762  -6.651   1.109  0.00  0.00    +0.000 A 
ATOM      3  C3  Y36 A 201      11.612  -6.353   0.045  0.00  0.00    +0.000 A 
ATOM      4  C4  Y36 A 201      11.345  -6.827  -1.234  0.00  0.00    +0.000 A 
ATOM      5  C5  Y36 A 201      10.220  -7.607  -1.437  0.00  0.00    +0.000 A 
ATOM      6  C6  Y36 A 201       9.340  -7.939  -0.397  0.00  0.00    +0.000 A 
ATOM      7  C7  Y36 A 201       8.285  -8.729  -0.971  0.00  0.00    +0.000 A 
ATOM      8  C8  Y36 A 201       8.584  -8.865  -2.270  0.00  0.00    +0.000 A 
ATOM      9  N2  Y36 A 201       9.744  -8.214  -2.604  0.00  0.00    +0.000 N 
ENDROOT
BRANCH   3  10
ATOM     10  C23 Y36 A 201      12.875  -5.606   0.281  0.00  0.00    +0.000 A 
ATOM     11  C24 Y36 A 201      14.042  -6.143  -0.208  0.00  0.00    +0.000 A 
ATOM     12  C25 Y36 A 201      15.260  -5.497  -0.023  0.00  0.00    +0.000 A 
ATOM     13  C26 Y36 A 201      15.324  -4.355   0.623  0.00  0.00    +0.000 A 
ATOM     14  C27 Y36 A 201      12.909  -4.493   0.995  0.00  0.00    +0.000 A 
ATOM     15  N6  Y36 A 201      14.169  -3.858   1.151  0.00  0.00    +0.000 N 
ATOM     16  C29 Y36 A 201      14.244  -2.643   1.940  0.00  0.00    +0.000 C 
ATOM     17  O3  Y36 A 201      16.408  -3.719   0.723  0.00  0.00    +0.000 OA
BRANCH  12  19
ATOM     18  C28 Y36 A 201      16.667  -7.343  -0.803  0.00  0.00    +0.000 C 
ATOM     19  N5  Y36 A 201      16.459  -5.965  -0.537  0.00  0.00    +0.000 NA
ENDBRANCH  12  19
ENDBRANCH   3  10
BRANCH   9  20
ATOM     20  C9  Y36 A 201      10.318  -8.037  -3.950  0.00  0.00    +0.000 C 
ATOM     21  C20 Y36 A 201       9.794  -9.139  -4.914  0.00  0.00    +0.000 C 
BRANCH  20  22
ATOM     22  C10 Y36 A 201       9.953  -6.667  -4.542  0.00  0.00    +0.000 A 
ATOM     23  C11 Y36 A 201      10.264  -6.462  -5.879  0.00  0.00    +0.000 A 
ATOM     24  C12 Y36 A 201       9.873  -5.329  -6.480  0.00  0.00    +0.000 A 
ATOM     25  C13 Y36 A 201       9.201  -4.363  -5.796  0.00  0.00    +0.000 A 
ATOM     26  C14 Y36 A 201       8.924  -4.601  -4.455  0.00  0.00    +0.000 A 
ATOM     27  N1  Y36 A 201       9.277  -5.736  -3.841  0.00  0.00    +0.000 NA
ENDBRANCH  20  22
BRANCH  20  28
ATOM     28  C15 Y36 A 201      11.855  -8.193  -3.922  0.00  0.00    +0.000 A 
ATOM     29  C16 Y36 A 201      13.673  -9.526  -3.432  0.00  0.00    +0.000 A 
ATOM     30  C17 Y36 A 201      14.548  -8.567  -3.854  0.00  0.00    +0.000 A 
ATOM     31  C18 Y36 A 201      14.069  -7.371  -4.301  0.00  0.00    +0.000 A 
ATOM     32  C19 Y36 A 201      12.688  -7.171  -4.328  0.00  0.00    +0.000 A 
ATOM     33  N3  Y36 A 201      12.323  -9.362  -3.495  0.00  0.00    +0.000 NA
ENDBRANCH  20  28
ENDBRANCH   9  20
BRANCH   1  34
ATOM     34  N4  Y36 A 201       8.776  -7.797   1.956  0.00  0.00    +0.000 NA
BRANCH  34  35
ATOM     35  S1  Y36 A 201       9.235  -7.985   3.479  0.00  0.00    +0.000 S 
ATOM     36  O1  Y36 A 201       8.271  -8.848   4.075  0.00  0.00    +0.000 OA
ATOM     37  O2  Y36 A 201      10.618  -8.395   3.510  0.00  0.00    +0.000 OA
BRANCH  35  38
ATOM     38  C21 Y36 A 201       9.136  -6.387   4.264  0.00  0.00    +0.000 C 
ATOM     39  C22 Y36 A 201       7.700  -5.882   4.247  0.00  0.00    +0.000 C 
ENDBRANCH  35  38
ENDBRANCH  34  35
ENDBRANCH   1  34
TORSDOF 8
