REMARK  Name = /Users/chinazoemeh/HopeMScP/data/ligands/BRD4-BD1_BRD4-BD1_87_7WWZ/BRD4-BD1_BRD4-BD1_87_7WWZ.pdb
REMARK  6 active torsions:
REMARK  status: ('A' for Active; 'I' for Inactive)
REMARK    1  A    between atoms: C4_1  and  C5_3
REMARK    2  A    between atoms: C9_8  and  C10_9
REMARK    3  A    between atoms: N2_13  and  C15_19
REMARK    4  A    between atoms: C15_19  and  C16_20
REMARK    5  A    between atoms: C16_20  and  O2_21
REMARK    6  A    between atoms: O2_21  and  C17_22
REMARK                            x       y       z     vdW  Elec       q    Type
REMARK                         _______ _______ _______ _____ _____    ______ ____
ROOT
ATOM      1  C5  7OW A 201      -5.302  -5.878  21.015  0.00  0.00    +0.000 A 
ATOM      2  C6  7OW A 201      -5.210  -4.929  19.973  0.00  0.00    +0.000 A 
ATOM      3  C7  7OW A 201      -4.585  -3.716  20.148  0.00  0.00    +0.000 A 
ATOM      4  C8  7OW A 201      -4.013  -3.448  21.392  0.00  0.00    +0.000 A 
ATOM      5  C9  7OW A 201      -2.899  -2.613  23.056  0.00  0.00    +0.000 A 
ATOM      6  N1  7OW A 201      -3.237  -2.350  21.819  0.00  0.00    +0.000 NA
ATOM      7  N2  7OW A 201      -3.464  -3.790  23.511  0.00  0.00    +0.000 N 
ATOM      8  C18 7OW A 201      -4.121  -4.371  22.431  0.00  0.00    +0.000 A 
ATOM      9  C19 7OW A 201      -4.777  -5.581  22.284  0.00  0.00    +0.000 A 
ENDROOT
BRANCH   1  10
ATOM     10  C4  7OW A 201      -5.901  -7.217  20.754  0.00  0.00    +0.000 A 
ATOM     11  C3  7OW A 201      -5.244  -8.345  21.230  0.00  0.00    +0.000 A 
ATOM     12  N3  7OW A 201      -7.540  -8.627  19.680  0.00  0.00    +0.000 N 
ATOM     13  C1  7OW A 201      -5.028 -10.840  21.432  0.00  0.00    +0.000 C 
ATOM     14  C2  7OW A 201      -5.741  -9.610  20.958  0.00  0.00    +0.000 A 
ATOM     15  C20 7OW A 201      -7.020  -7.388  19.959  0.00  0.00    +0.000 A 
ATOM     16  C21 7OW A 201      -8.752  -8.769  18.854  0.00  0.00    +0.000 C 
ATOM     17  C22 7OW A 201      -6.946  -9.761  20.219  0.00  0.00    +0.000 A 
ATOM     18  O3  7OW A 201      -7.411 -10.894  20.014  0.00  0.00    +0.000 OA
ENDBRANCH   1  10
BRANCH   5  21
ATOM     19  C14 7OW A 201      -0.554  -2.291  23.731  0.00  0.00    +0.000 C 
ATOM     20  C11 7OW A 201      -1.977  -0.286  23.435  0.00  0.00    +0.000 C 
ATOM     21  C10 7OW A 201      -1.998  -1.746  23.885  0.00  0.00    +0.000 C 
ATOM     22  C12 7OW A 201      -0.917   0.528  24.152  0.00  0.00    +0.000 C 
ATOM     23  C13 7OW A 201       0.411  -1.347  24.436  0.00  0.00    +0.000 C 
ATOM     24  O1  7OW A 201       0.364  -0.037  23.887  0.00  0.00    +0.000 OA
ENDBRANCH   5  21
BRANCH   7  25
ATOM     25  C15 7OW A 201      -3.295  -4.436  24.820  0.00  0.00    +0.000 C 
BRANCH  25  26
ATOM     26  C16 7OW A 201      -4.388  -4.038  25.771  0.00  0.00    +0.000 C 
BRANCH  26  27
ATOM     27  O2  7OW A 201      -5.616  -4.604  25.284  0.00  0.00    +0.000 OA
BRANCH  27  28
ATOM     28  C17 7OW A 201      -6.701  -4.454  26.123  0.00  0.00    +0.000 C 
ATOM     29  F1  7OW A 201      -6.952  -3.221  26.493  0.00  0.00    +0.000 F 
ATOM     30  F2  7OW A 201      -7.734  -4.981  25.475  0.00  0.00    +0.000 F 
ATOM     31  F3  7OW A 201      -6.559  -5.096  27.253  0.00  0.00    +0.000 F 
ENDBRANCH  27  28
ENDBRANCH  26  27
ENDBRANCH  25  26
ENDBRANCH   7  25
TORSDOF 6
