REMARK  Name = /Users/chinazoemeh/HopeMScP/data/ligands/BRD4-BD1_BRD4-BD1_16_6JI5/BRD4-BD1_BRD4-BD1_16_6JI5.pdb
REMARK  4 active torsions:
REMARK  status: ('A' for Active; 'I' for Inactive)
REMARK    1  A    between atoms: C14_2  and  N07_21
REMARK    2  A    between atoms: C19_7  and  C02_16
REMARK    3  A    between atoms: C21_8  and  C32_14
REMARK    4  A    between atoms: C24_9  and  N23_29
REMARK                            x       y       z     vdW  Elec       q    Type
REMARK                         _______ _______ _______ _____ _____    ______ ____
ROOT
ATOM      1  C19 BQ0 A 201       7.861  40.167   0.633  0.00  0.00    +0.000 C 
ATOM      2  C21 BQ0 A 201       6.131  38.991   0.969  0.00  0.00    +0.000 C 
ATOM      3  N20 BQ0 A 201       7.141  39.628   1.605  0.00  0.00    +0.000 NA
ATOM      4  N22 BQ0 A 201       6.205  39.190  -0.324  0.00  0.00    +0.000 NA
ATOM      5  N23 BQ0 A 201       7.292  39.894  -0.532  0.00  0.00    +0.000 N 
ENDROOT
BRANCH   1   8
ATOM      6  C12 BQ0 A 201      13.975  40.300   1.356  0.00  0.00    +0.000 C 
ATOM      7  C01 BQ0 A 201       9.135  42.018   1.784  0.00  0.00    +0.000 A 
ATOM      8  C02 BQ0 A 201       9.144  40.969   0.816  0.00  0.00    +0.000 A 
ATOM      9  C03 BQ0 A 201      10.275  40.627   0.034  0.00  0.00    +0.000 A 
ATOM     10  C04 BQ0 A 201      11.489  41.345   0.193  0.00  0.00    +0.000 A 
ATOM     11  C05 BQ0 A 201      11.471  42.435   1.167  0.00  0.00    +0.000 A 
ATOM     12  C06 BQ0 A 201      10.310  42.765   1.949  0.00  0.00    +0.000 A 
ATOM     13  N07 BQ0 A 201      12.799  41.071  -0.558  0.00  0.00    +0.000 N 
ATOM     14  C08 BQ0 A 201      13.905  41.376   0.253  0.00  0.00    +0.000 C 
ATOM     15  C09 BQ0 A 201      13.825  42.897   0.617  0.00  0.00    +0.000 C 
ATOM     16  N10 BQ0 A 201      12.719  43.245   1.382  0.00  0.00    +0.000 N 
ATOM     17  C11 BQ0 A 201      12.615  44.617   1.936  0.00  0.00    +0.000 C 
ATOM     18  O13 BQ0 A 201      15.061  43.396   1.080  0.00  0.00    +0.000 OA
BRANCH  13  19
ATOM     19  C14 BQ0 A 201      13.353  40.210  -1.755  0.00  0.00    +0.000 C 
ATOM     20  C15 BQ0 A 201      13.239  38.922  -1.688  0.00  0.00    +0.000 C 
ATOM     21  C16 BQ0 A 201      13.443  38.317  -3.237  0.00  0.00    +0.000 C 
ATOM     22  C17 BQ0 A 201      12.796  39.177  -4.027  0.00  0.00    +0.000 C 
ATOM     23  C18 BQ0 A 201      12.878  40.559  -3.244  0.00  0.00    +0.000 C 
ENDBRANCH  13  19
ENDBRANCH   1   8
BRANCH   2  24
ATOM     24  C32 BQ0 A 201       5.056  38.190   1.663  0.00  0.00    +0.000 C 
ATOM     25  O33 BQ0 A 201       5.185  37.019   1.826  0.00  0.00    +0.000 OA
ATOM     26  N34 BQ0 A 201       3.918  38.930   2.154  0.00  0.00    +0.000 N 
ATOM     27  C35 BQ0 A 201       3.772  40.339   2.018  0.00  0.00    +0.000 C 
ATOM     28  C36 BQ0 A 201       2.360  40.770   1.671  0.00  0.00    +0.000 C 
ATOM     29  N37 BQ0 A 201       1.334  40.109   2.396  0.00  0.00    +0.000 NA
ATOM     30  C38 BQ0 A 201       1.463  38.719   2.348  0.00  0.00    +0.000 C 
ATOM     31  C39 BQ0 A 201       2.842  38.341   2.880  0.00  0.00    +0.000 C 
ATOM     32  C40 BQ0 A 201       0.135  40.568   2.091  0.00  0.00    +0.000 C 
ENDBRANCH   2  24
BRANCH   5  33
ATOM     33  C24 BQ0 A 201       7.733  40.380  -1.849  0.00  0.00    +0.000 A 
ATOM     34  C25 BQ0 A 201       8.155  39.549  -2.901  0.00  0.00    +0.000 A 
ATOM     35  C28 BQ0 A 201       8.085  42.358  -3.190  0.00  0.00    +0.000 A 
ATOM     36  C29 BQ0 A 201       7.694  41.779  -2.002  0.00  0.00    +0.000 A 
ATOM     37  C31 BQ0 A 201       8.132  37.994  -2.786  0.00  0.00    +0.000 C 
ATOM     38  C26 BQ0 A 201       8.503  40.138  -4.134  0.00  0.00    +0.000 A 
ATOM     39  C27 BQ0 A 201       8.477  41.537  -4.263  0.00  0.00    +0.000 A 
ATOM     40  C30 BQ0 A 201       8.860  42.226  -5.602  0.00  0.00    +0.000 C 
ENDBRANCH   5  33
TORSDOF 4
