REMARK  Name = /Users/chinazoemeh/HopeMScP/data/ligands/BRD4-BD1_BRD4-BD1_25_8PIQ/BRD4-BD1_BRD4-BD1_25_8PIQ.pdb
REMARK  6 active torsions:
REMARK  status: ('A' for Active; 'I' for Inactive)
REMARK    1  A    between atoms: C1_1  and  O1_2
REMARK    2  A    between atoms: C1_1  and  C2_3
REMARK    3  A    between atoms: C2_3  and  O2_4
REMARK    4  A    between atoms: C1_11  and  O1_12
REMARK    5  A    between atoms: C1_11  and  C2_13
REMARK    6  A    between atoms: C2_13  and  O2_14
REMARK                            x       y       z     vdW  Elec       q    Type
REMARK                         _______ _______ _______ _____ _____    ______ ____
ROOT
ATOM      1  C1  EDO A 202      22.043   4.927  -5.419  0.00  0.00    +0.000 C 
ENDROOT
BRANCH   1   2
ATOM      2  O1  EDO A 202      22.617   6.082  -6.044  0.00  0.00    +0.000 OA
ATOM      3  HO1 EDO A 202      22.558   6.830  -5.422  0.00  0.00    +0.000 HD
ENDBRANCH   1   2
BRANCH   1   4
ATOM      4  C2  EDO A 202      21.381   4.115  -6.439  0.00  0.00    +0.000 C 
BRANCH   4   5
ATOM      5  O2  EDO A 202      20.310   4.781  -7.134  0.00  0.00    +0.000 OA
ATOM      6  HO2 EDO A 202      20.015   5.502  -6.590  0.00  0.00    +0.000 HD
ENDBRANCH   4   5
ENDBRANCH   1   4
TORSDOF 3
REMARK  Name = /Users/chinazoemeh/HopeMScP/data/ligands/BRD4-BD1_BRD4-BD1_25_8PIQ/BRD4-BD1_BRD4-BD1_25_8PIQ.pdb
REMARK  6 active torsions:
REMARK  status: ('A' for Active; 'I' for Inactive)
REMARK    1  A    between atoms: C1_1  and  O1_2
REMARK    2  A    between atoms: C1_1  and  C2_3
REMARK    3  A    between atoms: C2_3  and  O2_4
REMARK    4  A    between atoms: C1_11  and  O1_12
REMARK    5  A    between atoms: C1_11  and  C2_13
REMARK    6  A    between atoms: C2_13  and  O2_14
REMARK                            x       y       z     vdW  Elec       q    Type
REMARK                         _______ _______ _______ _____ _____    ______ ____
ROOT
ATOM      1  C1  EDO A 204      13.870   1.026 -28.695  0.00  0.00    +0.000 C 
ENDROOT
BRANCH   1   2
ATOM      2  O1  EDO A 204      14.934   1.126 -27.777  0.00  0.00    +0.000 OA
ATOM      3  HO1 EDO A 204      15.771   0.821 -28.178  0.00  0.00    +0.000 HD
ENDBRANCH   1   2
BRANCH   1   4
ATOM      4  C2  EDO A 204      14.250   1.464 -30.094  0.00  0.00    +0.000 C 
BRANCH   4   5
ATOM      5  O2  EDO A 204      15.376   0.718 -30.558  0.00  0.00    +0.000 OA
ATOM      6  HO2 EDO A 204      16.196   1.236 -30.452  0.00  0.00    +0.000 HD
ENDBRANCH   4   5
ENDBRANCH   1   4
TORSDOF 3
