REMARK  Name = /Users/chinazoemeh/HopeMScP/data/ligands/BRD4-BD1_BRD4-BD1_64_6VUJ/BRD4-BD1_BRD4-BD1_64_6VUJ.pdb
REMARK  0 active torsions:
REMARK  status: ('A' for Active; 'I' for Inactive)
REMARK                            x       y       z     vdW  Elec       q    Type
REMARK                         _______ _______ _______ _____ _____    ______ ____
ROOT
ATOM      1  N   NO3 A 201      -1.967   7.069 -13.221  0.00  0.00    +0.000 N 
ATOM      2  O1  NO3 A 201      -1.086   7.147 -12.315  0.00  0.00    +0.000 OA
ATOM      3  O2  NO3 A 201      -3.173   6.855 -12.912  0.00  0.00    +0.000 OA
ATOM      4  O3  NO3 A 201      -1.634   7.191 -14.435  0.00  0.00    +0.000 OA
ENDROOT
TORSDOF 0
