REMARK  Name = /Users/chinazoemeh/HopeMScP/data/ligands/BRD4-BD1_BRD4-BD1_50_5VZS/BRD4-BD1_BRD4-BD1_50_5VZS.pdb
REMARK  3 active torsions:
REMARK  status: ('A' for Active; 'I' for Inactive)
REMARK    1  A    between atoms: C1_1  and  C2_3
REMARK    2  A    between atoms: C1_5  and  C2_7
REMARK    3  A    between atoms: C1_9  and  C2_11
REMARK                            x       y       z     vdW  Elec       q    Type
REMARK                         _______ _______ _______ _____ _____    ______ ____
ROOT
ATOM      1  C1  EDO A 201      11.524 -11.878  23.715  0.00  0.00    +0.000 C 
ATOM      2  O1  EDO A 201      10.136 -12.189  23.912  0.00  0.00    +0.000 OA
ENDROOT
BRANCH   1   3
ATOM      3  C2  EDO A 201      12.362 -12.339  24.898  0.00  0.00    +0.000 C 
ATOM      4  O2  EDO A 201      12.262 -13.758  25.023  0.00  0.00    +0.000 OA
ENDBRANCH   1   3
TORSDOF 1
REMARK  Name = /Users/chinazoemeh/HopeMScP/data/ligands/BRD4-BD1_BRD4-BD1_50_5VZS/BRD4-BD1_BRD4-BD1_50_5VZS.pdb
REMARK  3 active torsions:
REMARK  status: ('A' for Active; 'I' for Inactive)
REMARK    1  A    between atoms: C1_1  and  C2_3
REMARK    2  A    between atoms: C1_5  and  C2_7
REMARK    3  A    between atoms: C1_9  and  C2_11
REMARK                            x       y       z     vdW  Elec       q    Type
REMARK                         _______ _______ _______ _____ _____    ______ ____
ROOT
ATOM      1  C1  EDO B 201     -14.836   9.354  37.924  0.00  0.00    +0.000 C 
ATOM      2  O1  EDO B 201     -13.628   8.656  38.248  0.00  0.00    +0.000 OA
ENDROOT
BRANCH   1   3
ATOM      3  C2  EDO B 201     -15.961   8.328  37.878  0.00  0.00    +0.000 C 
ATOM      4  O2  EDO B 201     -15.624   7.315  36.922  0.00  0.00    +0.000 OA
ENDBRANCH   1   3
TORSDOF 1
REMARK  Name = /Users/chinazoemeh/HopeMScP/data/ligands/BRD4-BD1_BRD4-BD1_50_5VZS/BRD4-BD1_BRD4-BD1_50_5VZS.pdb
REMARK  3 active torsions:
REMARK  status: ('A' for Active; 'I' for Inactive)
REMARK    1  A    between atoms: C1_1  and  C2_3
REMARK    2  A    between atoms: C1_5  and  C2_7
REMARK    3  A    between atoms: C1_9  and  C2_11
REMARK                            x       y       z     vdW  Elec       q    Type
REMARK                         _______ _______ _______ _____ _____    ______ ____
ROOT
ATOM      1  C1  EDO B 202       2.699  12.092  55.959  0.00  0.00    +0.000 C 
ATOM      2  O1  EDO B 202       3.900  12.845  55.715  0.00  0.00    +0.000 OA
ENDROOT
BRANCH   1   3
ATOM      3  C2  EDO B 202       1.486  13.020  55.961  0.00  0.00    +0.000 C 
ATOM      4  O2  EDO B 202       0.275  12.334  56.327  0.00  0.00    +0.000 OA
ENDBRANCH   1   3
TORSDOF 1
