REMARK  Name = /Users/chinazoemeh/HopeMScP/data/ligands/BRD4-BD1_BRD4-BD1_59_6C7R/BRD4-BD1_BRD4-BD1_59_6C7R.pdb
REMARK  3 active torsions:
REMARK  status: ('A' for Active; 'I' for Inactive)
REMARK    1  A    between atoms: C4_4  and  O_33
REMARK    2  A    between atoms: N1_6  and  C12_34
REMARK    3  A    between atoms: C14_36  and  C15_38
REMARK                            x       y       z     vdW  Elec       q    Type
REMARK                         _______ _______ _______ _____ _____    ______ ____
ROOT
ATOM      1  C2  EO4 A 201      -1.908   3.025  19.688  0.00  0.00    +0.000 C 
ATOM      2  C1  EO4 A 201      -3.013   2.340  19.797  0.00  0.00    +0.000 C 
ATOM      3  N6  EO4 A 201      -3.528   1.698  18.802  0.00  0.00    +0.000 NA
ENDROOT
TORSDOF 0
REMARK  Name = /Users/chinazoemeh/HopeMScP/data/ligands/BRD4-BD1_BRD4-BD1_59_6C7R/BRD4-BD1_BRD4-BD1_59_6C7R.pdb
REMARK  3 active torsions:
REMARK  status: ('A' for Active; 'I' for Inactive)
REMARK    1  A    between atoms: C4_4  and  O_33
REMARK    2  A    between atoms: N1_6  and  C12_34
REMARK    3  A    between atoms: C14_36  and  C15_38
REMARK                            x       y       z     vdW  Elec       q    Type
REMARK                         _______ _______ _______ _____ _____    ______ ____
ROOT
ATOM      1  C2  EO4 A 201      -1.863   3.050  19.651  0.00  0.00    +0.000 C 
ATOM      2  C1  EO4 A 201      -1.602   2.785  18.385  0.00  0.00    +0.000 C 
ATOM      3  N6  EO4 A 201      -2.360   2.099  17.657  0.00  0.00    +0.000 NA
ENDROOT
TORSDOF 0
REMARK  Name = /Users/chinazoemeh/HopeMScP/data/ligands/BRD4-BD1_BRD4-BD1_59_6C7R/BRD4-BD1_BRD4-BD1_59_6C7R.pdb
REMARK  3 active torsions:
REMARK  status: ('A' for Active; 'I' for Inactive)
REMARK    1  A    between atoms: C4_4  and  O_33
REMARK    2  A    between atoms: N1_6  and  C12_34
REMARK    3  A    between atoms: C14_36  and  C15_38
REMARK                            x       y       z     vdW  Elec       q    Type
REMARK                         _______ _______ _______ _____ _____    ______ ____
ROOT
ATOM      1  C3  EO4 A 201      -1.171   3.850  20.674  0.00  0.00    +0.000 A 
ATOM      2  C4  EO4 A 201      -1.793   4.916  21.366  0.00  0.00    +0.000 A 
ATOM      3  N1  EO4 A 201       0.271   7.646  24.905  0.00  0.00    +0.000 NA
ATOM      4  C6  EO4 A 201      -1.102   5.633  22.340  0.00  0.00    +0.000 A 
ATOM      5  C7  EO4 A 201       0.223   5.324  22.628  0.00  0.00    +0.000 A 
ATOM      6  C8  EO4 A 201       0.848   4.287  21.914  0.00  0.00    +0.000 A 
ATOM      7  C9  EO4 A 201       2.362   4.993  23.394  0.00  0.00    +0.000 C 
ATOM      8  C21 EO4 A 201       0.165   3.553  20.967  0.00  0.00    +0.000 A 
ATOM      9  N   EO4 A 201       2.140   4.128  22.375  0.00  0.00    +0.000 NA
ATOM     10  N5  EO4 A 201       3.448   5.055  24.175  0.00  0.00    +0.000 NA
ATOM     11  C19 EO4 A 201       3.366   5.912  25.199  0.00  0.00    +0.000 C 
ATOM     12  C20 EO4 A 201       4.525   5.976  26.136  0.00  0.00    +0.000 C 
ATOM     13  N4  EO4 A 201       2.321   6.700  25.466  0.00  0.00    +0.000 NA
ATOM     14  C11 EO4 A 201       1.234   6.665  24.686  0.00  0.00    +0.000 C 
ATOM     15  C10 EO4 A 201       1.186   5.784  23.594  0.00  0.00    +0.000 C 
ENDROOT
BRANCH   3  18
ATOM     16  N2  EO4 A 201      -2.468   9.221  23.267  0.00  0.00    +0.000 NA
ATOM     17  N3  EO4 A 201      -1.853   8.578  24.300  0.00  0.00    +0.000 N 
ATOM     18  C12 EO4 A 201      -0.484   8.368  24.024  0.00  0.00    +0.000 A 
ATOM     19  C18 EO4 A 201      -2.642   8.148  25.448  0.00  0.00    +0.000 C 
ATOM     20  C14 EO4 A 201      -1.544   9.411  22.329  0.00  0.00    +0.000 A 
ATOM     21  C13 EO4 A 201      -0.291   8.872  22.772  0.00  0.00    +0.000 A 
BRANCH  20  22
ATOM     22  C15 EO4 A 201      -1.724  10.071  21.006  0.00  0.00    +0.000 C 
ATOM     23  C17 EO4 A 201      -2.700  11.200  20.824  0.00  0.00    +0.000 C 
ATOM     24  C16 EO4 A 201      -3.000   9.883  20.237  0.00  0.00    +0.000 C 
ENDBRANCH  20  22
ENDBRANCH   3  18
BRANCH   2  26
ATOM     25  C5  EO4 A 201      -3.843   6.106  21.797  0.00  0.00    +0.000 C 
ATOM     26  O   EO4 A 201      -3.095   5.166  21.016  0.00  0.00    +0.000 OA
ENDBRANCH   2  26
TORSDOF 3
REMARK  Name = /Users/chinazoemeh/HopeMScP/data/ligands/BRD4-BD1_BRD4-BD1_59_6C7R/BRD4-BD1_BRD4-BD1_59_6C7R.pdb
REMARK  3 active torsions:
REMARK  status: ('A' for Active; 'I' for Inactive)
REMARK    1  A    between atoms: C4_4  and  O_33
REMARK    2  A    between atoms: N1_6  and  C12_34
REMARK    3  A    between atoms: C14_36  and  C15_38
REMARK                            x       y       z     vdW  Elec       q    Type
REMARK                         _______ _______ _______ _____ _____    ______ ____
ROOT
ATOM      1  O1  EO4 A 201      -2.545   1.998  17.828  0.00  0.00    +0.000 OA
ATOM      2  O1  EO4 A 201      -3.345   1.768  18.622  0.00  0.00    +0.000 OA
ENDROOT
TORSDOF 0
REMARK  Name = /Users/chinazoemeh/HopeMScP/data/ligands/BRD4-BD1_BRD4-BD1_59_6C7R/BRD4-BD1_BRD4-BD1_59_6C7R.pdb
REMARK  3 active torsions:
REMARK  status: ('A' for Active; 'I' for Inactive)
REMARK    1  A    between atoms: C4_4  and  O_33
REMARK    2  A    between atoms: N1_6  and  C12_34
REMARK    3  A    between atoms: C14_36  and  C15_38
REMARK                            x       y       z     vdW  Elec       q    Type
REMARK                         _______ _______ _______ _____ _____    ______ ____
ROOT
ATOM      1  C23 EO4 A 201      -3.953   2.134  21.141  0.00  0.00    +0.000 C 
ENDROOT
TORSDOF 0
REMARK  Name = /Users/chinazoemeh/HopeMScP/data/ligands/BRD4-BD1_BRD4-BD1_59_6C7R/BRD4-BD1_BRD4-BD1_59_6C7R.pdb
REMARK  3 active torsions:
REMARK  status: ('A' for Active; 'I' for Inactive)
REMARK    1  A    between atoms: C4_4  and  O_33
REMARK    2  A    between atoms: N1_6  and  C12_34
REMARK    3  A    between atoms: C14_36  and  C15_38
REMARK                            x       y       z     vdW  Elec       q    Type
REMARK                         _______ _______ _______ _____ _____    ______ ____
ROOT
ATOM      1  C23 EO4 A 201      -0.307   3.380  17.534  0.00  0.00    +0.000 C 
ENDROOT
TORSDOF 0
REMARK  Name = /Users/chinazoemeh/HopeMScP/data/ligands/BRD4-BD1_BRD4-BD1_59_6C7R/BRD4-BD1_BRD4-BD1_59_6C7R.pdb
REMARK  3 active torsions:
REMARK  status: ('A' for Active; 'I' for Inactive)
REMARK    1  A    between atoms: C4_4  and  O_33
REMARK    2  A    between atoms: N1_6  and  C12_34
REMARK    3  A    between atoms: C14_36  and  C15_38
REMARK                            x       y       z     vdW  Elec       q    Type
REMARK                         _______ _______ _______ _____ _____    ______ ____
ROOT
ATOM      1  C22 EO4 A 201      -3.149   2.293  19.894  0.00  0.00    +0.000 C 
ATOM      2  C   EO4 A 201      -3.899   2.036  20.947  0.00  0.00    +0.000 C 
ENDROOT
TORSDOF 0
REMARK  Name = /Users/chinazoemeh/HopeMScP/data/ligands/BRD4-BD1_BRD4-BD1_59_6C7R/BRD4-BD1_BRD4-BD1_59_6C7R.pdb
REMARK  3 active torsions:
REMARK  status: ('A' for Active; 'I' for Inactive)
REMARK    1  A    between atoms: C4_4  and  O_33
REMARK    2  A    between atoms: N1_6  and  C12_34
REMARK    3  A    between atoms: C14_36  and  C15_38
REMARK                            x       y       z     vdW  Elec       q    Type
REMARK                         _______ _______ _______ _____ _____    ______ ____
ROOT
ATOM      1  C22 EO4 A 201      -1.492   2.847  18.269  0.00  0.00    +0.000 C 
ATOM      2  C   EO4 A 201      -0.498   3.212  17.492  0.00  0.00    +0.000 C 
ENDROOT
TORSDOF 0
