REMARK  Name = /Users/chinazoemeh/HopeMScP/data/ligands/BRD4-BD1_BRD4-BD1_11_6JI4/BRD4-BD1_BRD4-BD1_11_6JI4.pdb
REMARK  3 active torsions:
REMARK  status: ('A' for Active; 'I' for Inactive)
REMARK    1  A    between atoms: C14_3  and  N07_11
REMARK    2  A    between atoms: C15_4  and  C02_6
REMARK    3  A    between atoms: N19_19  and  C20_20
REMARK                            x       y       z     vdW  Elec       q    Type
REMARK                         _______ _______ _______ _____ _____    ______ ____
ROOT
ATOM      1  C11 BOF A 201      14.049  43.984   1.320  0.00  0.00    +0.000 C 
ATOM      2  C12 BOF A 201      15.657  39.759   0.521  0.00  0.00    +0.000 C 
ATOM      3  C01 BOF A 201      10.491  41.228   0.810  0.00  0.00    +0.000 A 
ATOM      4  C02 BOF A 201      10.656  40.159  -0.304  0.00  0.00    +0.000 A 
ATOM      5  C03 BOF A 201      11.974  39.928  -1.070  0.00  0.00    +0.000 A 
ATOM      6  C04 BOF A 201      13.161  40.818  -0.716  0.00  0.00    +0.000 A 
ATOM      7  C05 BOF A 201      13.029  41.876   0.363  0.00  0.00    +0.000 A 
ATOM      8  C06 BOF A 201      11.710  42.112   1.136  0.00  0.00    +0.000 A 
ATOM      9  N07 BOF A 201      14.439  40.673  -1.395  0.00  0.00    +0.000 N 
ATOM     10  C08 BOF A 201      15.569  40.912  -0.538  0.00  0.00    +0.000 C 
ATOM     11  C09 BOF A 201      15.518  42.255   0.171  0.00  0.00    +0.000 C 
ATOM     12  N10 BOF A 201      14.215  42.705   0.621  0.00  0.00    +0.000 N 
ATOM     13  O13 BOF A 201      16.492  42.903   0.345  0.00  0.00    +0.000 OA
ENDROOT
BRANCH   4  14
ATOM     14  C15 BOF A 201       9.541  39.215  -0.700  0.00  0.00    +0.000 A 
ATOM     15  N16 BOF A 201       8.855  38.449   0.105  0.00  0.00    +0.000 NA
ATOM     16  N17 BOF A 201       7.999  37.730  -0.671  0.00  0.00    +0.000 NA
ATOM     17  C18 BOF A 201       8.206  38.073  -1.932  0.00  0.00    +0.000 A 
ATOM     18  N19 BOF A 201       9.180  38.973  -1.962  0.00  0.00    +0.000 N 
ATOM     19  C27 BOF A 201       7.495  37.532  -3.183  0.00  0.00    +0.000 C 
BRANCH  18  20
ATOM     20  C20 BOF A 201       9.684  39.652  -3.147  0.00  0.00    +0.000 A 
ATOM     21  C21 BOF A 201      10.440  38.925  -4.259  0.00  0.00    +0.000 A 
ATOM     22  C22 BOF A 201      10.909  39.746  -5.460  0.00  0.00    +0.000 A 
ATOM     23  C23 BOF A 201      10.619  41.247  -5.520  0.00  0.00    +0.000 A 
ATOM     24  C24 BOF A 201       9.863  41.965  -4.409  0.00  0.00    +0.000 A 
ATOM     25  C25 BOF A 201       9.394  41.152  -3.211  0.00  0.00    +0.000 A 
ATOM     26  C26 BOF A 201      11.091  42.071  -6.720  0.00  0.00    +0.000 C 
ENDBRANCH  18  20
ENDBRANCH   4  14
BRANCH   9  27
ATOM     27  C14 BOF A 201      14.586  39.615  -2.390  0.00  0.00    +0.000 C 
ATOM     28  C28 BOF A 201      14.099  39.664  -3.837  0.00  0.00    +0.000 C 
ATOM     29  C29 BOF A 201      15.591  39.531  -3.531  0.00  0.00    +0.000 C 
ENDBRANCH   9  27
TORSDOF 3
