REMARK  Name = /Users/chinazoemeh/HopeMScP/data/ligands/BRD4-BD1_BRD4-BD1_100_7YQ9/BRD4-BD1_BRD4-BD1_100_7YQ9.pdb
REMARK  8 active torsions:
REMARK  status: ('A' for Active; 'I' for Inactive)
REMARK    1  A    between atoms: C1_1  and  C22_16
REMARK    2  A    between atoms: C11_6  and  C12_7
REMARK    3  A    between atoms: C11_6  and  N10_24
REMARK    4  A    between atoms: C12_7  and  C13_8
REMARK    5  A    between atoms: C1_26  and  C22_41
REMARK    6  A    between atoms: C11_31  and  C12_32
REMARK    7  A    between atoms: C11_31  and  N10_49
REMARK    8  A    between atoms: C12_32  and  C13_33
REMARK                            x       y       z     vdW  Elec       q    Type
REMARK                         _______ _______ _______ _____ _____    ______ ____
ROOT
ATOM      1  C1  JLX A 202     -42.084  -7.103  -0.804  0.00  0.00    +0.000 A 
ATOM      2  C3  JLX A 202     -42.850  -5.620   0.621  0.00  0.00    +0.000 A 
ATOM      3  C7  JLX A 202     -44.866  -7.356   1.794  0.00  0.00    +0.000 A 
ATOM      4  C8  JLX A 202     -44.755  -5.998   2.299  0.00  0.00    +0.000 A 
ATOM      5  C9  JLX A 202     -43.766  -5.101   1.746  0.00  0.00    +0.000 A 
ATOM      6  N2  JLX A 202     -42.976  -6.901   0.171  0.00  0.00    +0.000 N 
ATOM      7  N4  JLX A 202     -41.870  -5.041  -0.072  0.00  0.00    +0.000 NA
ATOM      8  N5  JLX A 202     -41.374  -5.973  -0.962  0.00  0.00    +0.000 NA
ATOM      9  N6  JLX A 202     -44.001  -7.838   0.744  0.00  0.00    +0.000 NA
ATOM     10  N10 JLX A 202     -45.833  -8.280   2.316  0.00  0.00    +0.000 NA
ENDROOT
BRANCH   1  11
ATOM     11  C22 JLX A 202     -41.919  -8.431  -1.536  0.00  0.00    +0.000 C 
ATOM     12  F23 JLX A 202     -43.026  -8.733  -2.275  0.00  0.00    +0.000 F 
ATOM     13  F24 JLX A 202     -40.811  -8.333  -2.306  0.00  0.00    +0.000 F 
ATOM     14  F25 JLX A 202     -41.773  -9.410  -0.600  0.00  0.00    +0.000 F 
ENDBRANCH   1  11
BRANCH  10  15
ATOM     15  C11 JLX A 202     -45.756  -9.635   1.805  0.00  0.00    +0.000 C 
BRANCH  15  16
ATOM     16  C12 JLX A 202     -45.817 -10.597   2.981  0.00  0.00    +0.000 C 
BRANCH  16  17
ATOM     17  C13 JLX A 202     -44.940 -10.130   4.150  0.00  0.00    +0.000 C 
ATOM     18  C14 JLX A 202     -43.576 -10.228   4.267  0.00  0.00    +0.000 A 
ATOM     19  C15 JLX A 202     -43.220  -9.699   5.509  0.00  0.00    +0.000 A 
ATOM     20  C17 JLX A 202     -45.426  -9.555   5.315  0.00  0.00    +0.000 C 
ATOM     21  C18 JLX A 202     -42.466 -10.784   3.307  0.00  0.00    +0.000 A 
ATOM     22  C19 JLX A 202     -41.026 -10.741   3.740  0.00  0.00    +0.000 A 
ATOM     23  C20 JLX A 202     -40.659 -10.181   5.063  0.00  0.00    +0.000 A 
ATOM     24  C21 JLX A 202     -41.721  -9.642   5.975  0.00  0.00    +0.000 A 
ATOM     25  N16 JLX A 202     -44.368  -9.287   6.141  0.00  0.00    +0.000 NA
ENDBRANCH  16  17
ENDBRANCH  15  16
ENDBRANCH  10  15
TORSDOF 4
REMARK  Name = /Users/chinazoemeh/HopeMScP/data/ligands/BRD4-BD1_BRD4-BD1_100_7YQ9/BRD4-BD1_BRD4-BD1_100_7YQ9.pdb
REMARK  8 active torsions:
REMARK  status: ('A' for Active; 'I' for Inactive)
REMARK    1  A    between atoms: C1_1  and  C22_16
REMARK    2  A    between atoms: C11_6  and  C12_7
REMARK    3  A    between atoms: C11_6  and  N10_24
REMARK    4  A    between atoms: C12_7  and  C13_8
REMARK    5  A    between atoms: C1_26  and  C22_41
REMARK    6  A    between atoms: C11_31  and  C12_32
REMARK    7  A    between atoms: C11_31  and  N10_49
REMARK    8  A    between atoms: C12_32  and  C13_33
REMARK                            x       y       z     vdW  Elec       q    Type
REMARK                         _______ _______ _______ _____ _____    ______ ____
ROOT
ATOM      1  C1  JLX B 202     -18.348   2.511 -38.914  0.00  0.00    +0.000 A 
ATOM      2  C3  JLX B 202     -19.102   1.033 -40.353  0.00  0.00    +0.000 A 
ATOM      3  C7  JLX B 202     -21.115   2.773 -41.538  0.00  0.00    +0.000 A 
ATOM      4  C8  JLX B 202     -21.000   1.413 -42.046  0.00  0.00    +0.000 A 
ATOM      5  C9  JLX B 202     -20.012   0.519 -41.488  0.00  0.00    +0.000 A 
ATOM      6  N2  JLX B 202     -19.236   2.313 -39.899  0.00  0.00    +0.000 N 
ATOM      7  N4  JLX B 202     -18.123   0.456 -39.655  0.00  0.00    +0.000 NA
ATOM      8  N5  JLX B 202     -17.631   1.386 -38.764  0.00  0.00    +0.000 NA
ATOM      9  N6  JLX B 202     -20.256   3.256 -40.477  0.00  0.00    +0.000 NA
ATOM     10  N10 JLX B 202     -22.085   3.694 -42.063  0.00  0.00    +0.000 NA
ENDROOT
BRANCH   1  11
ATOM     11  C22 JLX B 202     -18.187   3.837 -38.179  0.00  0.00    +0.000 C 
ATOM     12  F23 JLX B 202     -19.287   4.139 -37.434  0.00  0.00    +0.000 F 
ATOM     13  F24 JLX B 202     -18.045   4.818 -39.118  0.00  0.00    +0.000 F 
ATOM     14  F25 JLX B 202     -17.083   3.734 -37.400  0.00  0.00    +0.000 F 
ENDBRANCH   1  11
BRANCH  10  15
ATOM     15  C11 JLX B 202     -22.001   5.047 -41.548  0.00  0.00    +0.000 C 
BRANCH  15  16
ATOM     16  C12 JLX B 202     -22.054   6.013 -42.720  0.00  0.00    +0.000 C 
BRANCH  16  17
ATOM     17  C13 JLX B 202     -21.200   5.530 -43.898  0.00  0.00    +0.000 C 
ATOM     18  C14 JLX B 202     -19.838   5.626 -44.029  0.00  0.00    +0.000 C 
ATOM     19  C15 JLX B 202     -19.497   5.084 -45.269  0.00  0.00    +0.000 C 
ATOM     20  C17 JLX B 202     -21.699   4.939 -45.051  0.00  0.00    +0.000 C 
ATOM     21  C18 JLX B 202     -18.718   6.200 -43.088  0.00  0.00    +0.000 C 
ATOM     22  C19 JLX B 202     -17.282   6.152 -43.536  0.00  0.00    +0.000 C 
ATOM     23  C20 JLX B 202     -16.930   5.576 -44.857  0.00  0.00    +0.000 C 
ATOM     24  C21 JLX B 202     -18.004   5.028 -45.752  0.00  0.00    +0.000 C 
ATOM     25  N16 JLX B 202     -20.647   4.663 -45.885  0.00  0.00    +0.000 NA
ENDBRANCH  16  17
ENDBRANCH  15  16
ENDBRANCH  10  15
TORSDOF 4
