REMARK  Name = /Users/chinazoemeh/HopeMScP/data/ligands/BRD4-BD1_BRD4-BD1_48_7K6G/BRD4-BD1_BRD4-BD1_48_7K6G.pdb
REMARK  24 active torsions:
REMARK  status: ('A' for Active; 'I' for Inactive)
REMARK    1  A    between atoms: C13_1  and  N14_38
REMARK    2  A    between atoms: C02_10  and  O03_45
REMARK    3  A    between atoms: C04_11  and  O03_45
REMARK    4  A    between atoms: C05_12  and  N25_40
REMARK    5  A    between atoms: C08_15  and  C09_16
REMARK    6  A    between atoms: C37_27  and  N34_43
REMARK    7  A    between atoms: C13_48  and  N14_85
REMARK    8  A    between atoms: C02_57  and  O03_92
REMARK    9  A    between atoms: C04_58  and  O03_92
REMARK   10  A    between atoms: C05_59  and  N25_87
REMARK   11  A    between atoms: C08_62  and  C09_63
REMARK   12  A    between atoms: C37_74  and  N34_90
REMARK   13  A    between atoms: C13_95  and  N14_132
REMARK   14  A    between atoms: C02_104  and  O03_139
REMARK   15  A    between atoms: C04_105  and  O03_139
REMARK   16  A    between atoms: C05_106  and  N25_134
REMARK   17  A    between atoms: C08_109  and  C09_110
REMARK   18  A    between atoms: C37_121  and  N34_137
REMARK   19  A    between atoms: C13_142  and  N14_179
REMARK   20  A    between atoms: C02_151  and  O03_186
REMARK   21  A    between atoms: C04_152  and  O03_186
REMARK   22  A    between atoms: C05_153  and  N25_181
REMARK   23  A    between atoms: C08_156  and  C09_157
REMARK   24  A    between atoms: C37_168  and  N34_184
REMARK                            x       y       z     vdW  Elec       q    Type
REMARK                         _______ _______ _______ _____ _____    ______ ____
ROOT
ATOM      1  C24 VYJ A 201      -6.423 -13.228 -25.119  0.00  0.00    +0.000 A 
ATOM      2  C04 VYJ A 201      -6.151 -11.860 -25.259  0.00  0.00    +0.000 A 
ATOM      3  C05 VYJ A 201      -5.378 -11.415 -26.351  0.00  0.00    +0.000 A 
ATOM      4  C06 VYJ A 201      -4.873 -12.335 -27.288  0.00  0.00    +0.000 A 
ATOM      5  C07 VYJ A 201      -5.139 -13.703 -27.139  0.00  0.00    +0.000 A 
ATOM      6  C08 VYJ A 201      -5.934 -14.162 -26.061  0.00  0.00    +0.000 A 
ENDROOT
BRANCH   3  19
ATOM      7  C26 VYJ A 201      -5.044  -9.225 -27.389  0.00  0.00    +0.000 C 
ATOM      8  C28 VYJ A 201      -4.959  -7.026 -28.209  0.00  0.00    +0.000 C 
ATOM      9  C29 VYJ A 201      -4.772  -7.498 -29.522  0.00  0.00    +0.000 C 
ATOM     10  C31 VYJ A 201      -3.809  -6.667 -31.570  0.00  0.00    +0.000 C 
ATOM     11  C32 VYJ A 201      -2.927  -7.759 -31.790  0.00  0.00    +0.000 A 
ATOM     12  C33 VYJ A 201      -3.284  -9.118 -31.508  0.00  0.00    +0.000 A 
ATOM     13  C35 VYJ A 201      -4.725  -8.894 -29.733  0.00  0.00    +0.000 C 
ATOM     14  C42 VYJ A 201      -2.316 -10.120 -31.769  0.00  0.00    +0.000 A 
ATOM     15  C43 VYJ A 201      -1.054  -9.800 -32.292  0.00  0.00    +0.000 A 
ATOM     16  C44 VYJ A 201      -0.712  -8.467 -32.553  0.00  0.00    +0.000 A 
ATOM     17  C45 VYJ A 201      -1.642  -7.457 -32.311  0.00  0.00    +0.000 A 
ATOM     18  C47 VYJ A 201      -5.637  -5.457 -30.504  0.00  0.00    +0.000 C 
ATOM     19  N25 VYJ A 201      -5.194 -10.076 -26.362  0.00  0.00    +0.000 NA
ATOM     20  N27 VYJ A 201      -5.097  -7.897 -27.200  0.00  0.00    +0.000 NA
ATOM     21  N30 VYJ A 201      -4.678  -6.557 -30.518  0.00  0.00    +0.000 N 
ATOM     22  N34 VYJ A 201      -4.527  -9.465 -30.971  0.00  0.00    +0.000 N 
ATOM     23  N36 VYJ A 201      -4.864  -9.725 -28.642  0.00  0.00    +0.000 NA
ATOM     24  O46 VYJ A 201      -3.782  -5.738 -32.409  0.00  0.00    +0.000 OA
BRANCH  22  25
ATOM     25  C37 VYJ A 201      -5.151 -10.764 -31.217  0.00  0.00    +0.000 C 
ATOM     26  C38 VYJ A 201      -5.191 -11.183 -32.718  0.00  0.00    +0.000 C 
ATOM     27  C39 VYJ A 201      -6.604 -11.699 -33.044  0.00  0.00    +0.000 C 
ATOM     28  C40 VYJ A 201      -7.307 -11.893 -31.691  0.00  0.00    +0.000 C 
ATOM     29  C41 VYJ A 201      -6.632 -10.882 -30.757  0.00  0.00    +0.000 C 
ENDBRANCH  22  25
ENDBRANCH   3  19
BRANCH   6  33
ATOM     30  C13 VYJ A 201      -5.233 -17.515 -22.306  0.00  0.00    +0.000 C 
ATOM     31  C21 VYJ A 201      -5.042 -15.987 -22.473  0.00  0.00    +0.000 C 
ATOM     32  C22 VYJ A 201      -4.733 -15.772 -23.969  0.00  0.00    +0.000 C 
ATOM     33  C09 VYJ A 201      -6.156 -15.572 -25.942  0.00  0.00    +0.000 C 
ATOM     34  C11 VYJ A 201      -6.537 -17.492 -24.507  0.00  0.00    +0.000 C 
ATOM     35  C12 VYJ A 201      -6.537 -17.950 -23.023  0.00  0.00    +0.000 C 
ATOM     36  N10 VYJ A 201      -5.684 -16.361 -24.899  0.00  0.00    +0.000 N 
ATOM     37  O23 VYJ A 201      -6.820 -16.117 -26.864  0.00  0.00    +0.000 OA
BRANCH  30  43
ATOM     38  C15 VYJ A 201      -5.604 -19.389 -20.576  0.00  0.00    +0.000 C 
ATOM     39  C20 VYJ A 201      -5.148 -19.230 -16.765  0.00  0.00    +0.000 C 
ATOM     40  C16 VYJ A 201      -6.002 -19.500 -19.082  0.00  0.00    +0.000 C 
ATOM     41  C18 VYJ A 201      -4.382 -17.666 -18.526  0.00  0.00    +0.000 C 
ATOM     42  C19 VYJ A 201      -4.038 -17.501 -20.023  0.00  0.00    +0.000 C 
ATOM     43  N14 VYJ A 201      -5.150 -18.000 -20.892  0.00  0.00    +0.000 NA
ATOM     44  N17 VYJ A 201      -4.867 -19.050 -18.211  0.00  0.00    +0.000 NA
ENDBRANCH  30  43
ENDBRANCH   6  33
BRANCH   2  45
ATOM     45  O03 VYJ A 201      -6.627 -10.936 -24.367  0.00  0.00    +0.000 OA
BRANCH  45  47
ATOM     46  C01 VYJ A 201      -7.969 -10.302 -22.444  0.00  0.00    +0.000 C 
ATOM     47  C02 VYJ A 201      -7.498 -11.464 -23.336  0.00  0.00    +0.000 C 
ENDBRANCH  45  47
ENDBRANCH   2  45
TORSDOF 6
REMARK  Name = /Users/chinazoemeh/HopeMScP/data/ligands/BRD4-BD1_BRD4-BD1_48_7K6G/BRD4-BD1_BRD4-BD1_48_7K6G.pdb
REMARK  24 active torsions:
REMARK  status: ('A' for Active; 'I' for Inactive)
REMARK    1  A    between atoms: C13_1  and  N14_38
REMARK    2  A    between atoms: C02_10  and  O03_45
REMARK    3  A    between atoms: C04_11  and  O03_45
REMARK    4  A    between atoms: C05_12  and  N25_40
REMARK    5  A    between atoms: C08_15  and  C09_16
REMARK    6  A    between atoms: C37_27  and  N34_43
REMARK    7  A    between atoms: C13_48  and  N14_85
REMARK    8  A    between atoms: C02_57  and  O03_92
REMARK    9  A    between atoms: C04_58  and  O03_92
REMARK   10  A    between atoms: C05_59  and  N25_87
REMARK   11  A    between atoms: C08_62  and  C09_63
REMARK   12  A    between atoms: C37_74  and  N34_90
REMARK   13  A    between atoms: C13_95  and  N14_132
REMARK   14  A    between atoms: C02_104  and  O03_139
REMARK   15  A    between atoms: C04_105  and  O03_139
REMARK   16  A    between atoms: C05_106  and  N25_134
REMARK   17  A    between atoms: C08_109  and  C09_110
REMARK   18  A    between atoms: C37_121  and  N34_137
REMARK   19  A    between atoms: C13_142  and  N14_179
REMARK   20  A    between atoms: C02_151  and  O03_186
REMARK   21  A    between atoms: C04_152  and  O03_186
REMARK   22  A    between atoms: C05_153  and  N25_181
REMARK   23  A    between atoms: C08_156  and  C09_157
REMARK   24  A    between atoms: C37_168  and  N34_184
REMARK                            x       y       z     vdW  Elec       q    Type
REMARK                         _______ _______ _______ _____ _____    ______ ____
ROOT
ATOM      1  C24 VYJ A 202       5.040 -12.505 -36.122  0.00  0.00    +0.000 A 
ATOM      2  C04 VYJ A 202       4.714 -11.161 -35.918  0.00  0.00    +0.000 A 
ATOM      3  C05 VYJ A 202       3.923 -10.784 -34.811  0.00  0.00    +0.000 A 
ATOM      4  C06 VYJ A 202       3.464 -11.772 -33.922  0.00  0.00    +0.000 A 
ATOM      5  C07 VYJ A 202       3.798 -13.112 -34.134  0.00  0.00    +0.000 A 
ATOM      6  C08 VYJ A 202       4.600 -13.501 -35.230  0.00  0.00    +0.000 A 
ENDROOT
BRANCH   3  19
ATOM      7  C26 VYJ A 202       3.440  -8.626 -33.739  0.00  0.00    +0.000 C 
ATOM      8  C28 VYJ A 202       3.116  -6.485 -32.859  0.00  0.00    +0.000 C 
ATOM      9  C29 VYJ A 202       2.976  -7.012 -31.565  0.00  0.00    +0.000 C 
ATOM     10  C31 VYJ A 202       1.926  -6.362 -29.489  0.00  0.00    +0.000 C 
ATOM     11  C32 VYJ A 202       1.175  -7.556 -29.316  0.00  0.00    +0.000 A 
ATOM     12  C33 VYJ A 202       1.678  -8.845 -29.648  0.00  0.00    +0.000 A 
ATOM     13  C35 VYJ A 202       3.085  -8.419 -31.398  0.00  0.00    +0.000 C 
ATOM     14  C42 VYJ A 202       0.831  -9.964 -29.427  0.00  0.00    +0.000 A 
ATOM     15  C43 VYJ A 202      -0.457  -9.833 -28.891  0.00  0.00    +0.000 A 
ATOM     16  C44 VYJ A 202      -0.949  -8.567 -28.572  0.00  0.00    +0.000 A 
ATOM     17  C45 VYJ A 202      -0.140  -7.447 -28.795  0.00  0.00    +0.000 A 
ATOM     18  C47 VYJ A 202       3.642  -4.944 -30.493  0.00  0.00    +0.000 C 
ATOM     19  N25 VYJ A 202       3.676  -9.451 -34.766  0.00  0.00    +0.000 NA
ATOM     20  N27 VYJ A 202       3.330  -7.297 -33.900  0.00  0.00    +0.000 NA
ATOM     21  N30 VYJ A 202       2.787  -6.123 -30.533  0.00  0.00    +0.000 N 
ATOM     22  N34 VYJ A 202       2.945  -9.031 -30.182  0.00  0.00    +0.000 N 
ATOM     23  N36 VYJ A 202       3.303  -9.172 -32.509  0.00  0.00    +0.000 NA
ATOM     24  O46 VYJ A 202       1.784  -5.456 -28.631  0.00  0.00    +0.000 OA
BRANCH  22  25
ATOM     25  C37 VYJ A 202       3.645 -10.300 -29.948  0.00  0.00    +0.000 C 
ATOM     26  C38 VYJ A 202       3.796 -10.646 -28.437  0.00  0.00    +0.000 C 
ATOM     27  C39 VYJ A 202       5.300 -10.743 -28.117  0.00  0.00    +0.000 C 
ATOM     28  C40 VYJ A 202       5.961 -11.098 -29.455  0.00  0.00    +0.000 C 
ATOM     29  C41 VYJ A 202       5.087 -10.409 -30.519  0.00  0.00    +0.000 C 
ENDBRANCH  22  25
ENDBRANCH   3  19
BRANCH   6  33
ATOM     30  C13 VYJ A 202       4.175 -16.742 -39.198  0.00  0.00    +0.000 C 
ATOM     31  C21 VYJ A 202       5.290 -17.245 -38.237  0.00  0.00    +0.000 C 
ATOM     32  C22 VYJ A 202       4.951 -16.992 -36.745  0.00  0.00    +0.000 C 
ATOM     33  C09 VYJ A 202       4.879 -14.897 -35.414  0.00  0.00    +0.000 C 
ATOM     34  C11 VYJ A 202       3.469 -15.090 -37.419  0.00  0.00    +0.000 C 
ATOM     35  C12 VYJ A 202       3.871 -15.250 -38.905  0.00  0.00    +0.000 C 
ATOM     36  N10 VYJ A 202       4.362 -15.704 -36.433  0.00  0.00    +0.000 N 
ATOM     37  O23 VYJ A 202       5.632 -15.433 -34.560  0.00  0.00    +0.000 OA
BRANCH  30  43
ATOM     38  C15 VYJ A 202       3.604 -16.384 -41.692  0.00  0.00    +0.000 C 
ATOM     39  C20 VYJ A 202       4.791 -18.426 -44.738  0.00  0.00    +0.000 C 
ATOM     40  C16 VYJ A 202       3.473 -17.225 -42.983  0.00  0.00    +0.000 C 
ATOM     41  C18 VYJ A 202       5.192 -18.822 -42.326  0.00  0.00    +0.000 C 
ATOM     42  C19 VYJ A 202       5.418 -18.109 -40.973  0.00  0.00    +0.000 C 
ATOM     43  N14 VYJ A 202       4.525 -16.941 -40.640  0.00  0.00    +0.000 NA
ATOM     44  N17 VYJ A 202       4.769 -17.851 -43.365  0.00  0.00    +0.000 NA
ENDBRANCH  30  43
ENDBRANCH   6  33
BRANCH   2  45
ATOM     45  O03 VYJ A 202       5.153 -10.187 -36.789  0.00  0.00    +0.000 OA
BRANCH  45  47
ATOM     46  C01 VYJ A 202       6.480  -9.357 -38.611  0.00  0.00    +0.000 C 
ATOM     47  C02 VYJ A 202       6.127 -10.602 -37.775  0.00  0.00    +0.000 C 
ENDBRANCH  45  47
ENDBRANCH   2  45
TORSDOF 6
REMARK  Name = /Users/chinazoemeh/HopeMScP/data/ligands/BRD4-BD1_BRD4-BD1_48_7K6G/BRD4-BD1_BRD4-BD1_48_7K6G.pdb
REMARK  24 active torsions:
REMARK  status: ('A' for Active; 'I' for Inactive)
REMARK    1  A    between atoms: C13_1  and  N14_38
REMARK    2  A    between atoms: C02_10  and  O03_45
REMARK    3  A    between atoms: C04_11  and  O03_45
REMARK    4  A    between atoms: C05_12  and  N25_40
REMARK    5  A    between atoms: C08_15  and  C09_16
REMARK    6  A    between atoms: C37_27  and  N34_43
REMARK    7  A    between atoms: C13_48  and  N14_85
REMARK    8  A    between atoms: C02_57  and  O03_92
REMARK    9  A    between atoms: C04_58  and  O03_92
REMARK   10  A    between atoms: C05_59  and  N25_87
REMARK   11  A    between atoms: C08_62  and  C09_63
REMARK   12  A    between atoms: C37_74  and  N34_90
REMARK   13  A    between atoms: C13_95  and  N14_132
REMARK   14  A    between atoms: C02_104  and  O03_139
REMARK   15  A    between atoms: C04_105  and  O03_139
REMARK   16  A    between atoms: C05_106  and  N25_134
REMARK   17  A    between atoms: C08_109  and  C09_110
REMARK   18  A    between atoms: C37_121  and  N34_137
REMARK   19  A    between atoms: C13_142  and  N14_179
REMARK   20  A    between atoms: C02_151  and  O03_186
REMARK   21  A    between atoms: C04_152  and  O03_186
REMARK   22  A    between atoms: C05_153  and  N25_181
REMARK   23  A    between atoms: C08_156  and  C09_157
REMARK   24  A    between atoms: C37_168  and  N34_184
REMARK                            x       y       z     vdW  Elec       q    Type
REMARK                         _______ _______ _______ _____ _____    ______ ____
ROOT
ATOM      1  C24 VYJ A 203      -7.028  -4.451 -23.942  0.00  0.00    +0.000 A 
ATOM      2  C04 VYJ A 203      -6.330  -4.565 -22.728  0.00  0.00    +0.000 A 
ATOM      3  C05 VYJ A 203      -5.772  -5.790 -22.345  0.00  0.00    +0.000 A 
ATOM      4  C06 VYJ A 203      -5.912  -6.929 -23.169  0.00  0.00    +0.000 A 
ATOM      5  C07 VYJ A 203      -6.590  -6.813 -24.378  0.00  0.00    +0.000 A 
ATOM      6  C08 VYJ A 203      -7.168  -5.578 -24.783  0.00  0.00    +0.000 A 
ENDROOT
BRANCH   3  19
ATOM      7  C26 VYJ A 203      -4.308  -6.552 -20.517  0.00  0.00    +0.000 C 
ATOM      8  C28 VYJ A 203      -2.891  -7.164 -18.758  0.00  0.00    +0.000 C 
ATOM      9  C29 VYJ A 203      -2.629  -8.414 -19.357  0.00  0.00    +0.000 C 
ATOM     10  C31 VYJ A 203      -2.068 -10.632 -18.611  0.00  0.00    +0.000 C 
ATOM     11  C32 VYJ A 203      -3.104 -11.339 -19.306  0.00  0.00    +0.000 A 
ATOM     12  C33 VYJ A 203      -3.584 -10.959 -20.600  0.00  0.00    +0.000 A 
ATOM     13  C35 VYJ A 203      -3.261  -8.689 -20.590  0.00  0.00    +0.000 C 
ATOM     14  C42 VYJ A 203      -4.622 -11.712 -21.198  0.00  0.00    +0.000 A 
ATOM     15  C43 VYJ A 203      -5.168 -12.830 -20.568  0.00  0.00    +0.000 A 
ATOM     16  C44 VYJ A 203      -4.692 -13.200 -19.309  0.00  0.00    +0.000 A 
ATOM     17  C45 VYJ A 203      -3.679 -12.469 -18.673  0.00  0.00    +0.000 A 
ATOM     18  C47 VYJ A 203      -0.596  -8.764 -18.053  0.00  0.00    +0.000 C 
ATOM     19  N25 VYJ A 203      -5.146  -5.703 -21.140  0.00  0.00    +0.000 NA
ATOM     20  N27 VYJ A 203      -3.718  -6.281 -19.350  0.00  0.00    +0.000 NA
ATOM     21  N30 VYJ A 203      -1.780  -9.283 -18.726  0.00  0.00    +0.000 N 
ATOM     22  N34 VYJ A 203      -3.106  -9.851 -21.293  0.00  0.00    +0.000 N 
ATOM     23  N36 VYJ A 203      -4.086  -7.763 -21.111  0.00  0.00    +0.000 NA
ATOM     24  O46 VYJ A 203      -1.351 -11.301 -17.847  0.00  0.00    +0.000 OA
BRANCH  22  25
ATOM     25  C37 VYJ A 203      -3.097  -9.766 -22.763  0.00  0.00    +0.000 C 
ATOM     26  C38 VYJ A 203      -2.520 -11.002 -23.523  0.00  0.00    +0.000 C 
ATOM     27  C39 VYJ A 203      -1.698 -10.488 -24.722  0.00  0.00    +0.000 C 
ATOM     28  C40 VYJ A 203      -2.018  -8.990 -24.850  0.00  0.00    +0.000 C 
ATOM     29  C41 VYJ A 203      -2.333  -8.569 -23.407  0.00  0.00    +0.000 C 
ENDBRANCH  22  25
ENDBRANCH   3  19
BRANCH   6  33
ATOM     30  C13 VYJ A 203      -9.956  -9.042 -27.312  0.00  0.00    +0.000 C 
ATOM     31  C21 VYJ A 203      -9.502  -8.803 -25.844  0.00  0.00    +0.000 C 
ATOM     32  C22 VYJ A 203      -9.571  -7.295 -25.532  0.00  0.00    +0.000 C 
ATOM     33  C09 VYJ A 203      -7.846  -5.589 -26.044  0.00  0.00    +0.000 C 
ATOM     34  C11 VYJ A 203      -8.903  -6.790 -27.905  0.00  0.00    +0.000 C 
ATOM     35  C12 VYJ A 203      -9.032  -8.282 -28.288  0.00  0.00    +0.000 C 
ATOM     36  N10 VYJ A 203      -8.841  -6.469 -26.482  0.00  0.00    +0.000 N 
ATOM     37  O23 VYJ A 203      -7.450  -4.694 -26.826  0.00  0.00    +0.000 OA
BRANCH  30  43
ATOM     38  C15 VYJ A 203      -8.750 -11.268 -27.523  0.00  0.00    +0.000 C 
ATOM     39  C20 VYJ A 203      -9.999 -14.834 -28.032  0.00  0.00    +0.000 C 
ATOM     40  C16 VYJ A 203      -8.847 -12.641 -28.225  0.00  0.00    +0.000 C 
ATOM     41  C18 VYJ A 203     -11.274 -12.696 -27.761  0.00  0.00    +0.000 C 
ATOM     42  C19 VYJ A 203     -11.217 -11.262 -27.181  0.00  0.00    +0.000 C 
ATOM     43  N14 VYJ A 203     -10.026 -10.494 -27.664  0.00  0.00    +0.000 NA
ATOM     44  N17 VYJ A 203      -9.964 -13.409 -27.599  0.00  0.00    +0.000 NA
ENDBRANCH  30  43
ENDBRANCH   6  33
BRANCH   2  45
ATOM     45  O03 VYJ A 203      -6.161  -3.512 -21.866  0.00  0.00    +0.000 OA
BRANCH  45  47
ATOM     46  C01 VYJ A 203      -5.889  -1.155 -21.372  0.00  0.00    +0.000 C 
ATOM     47  C02 VYJ A 203      -6.165  -2.195 -22.471  0.00  0.00    +0.000 C 
ENDBRANCH  45  47
ENDBRANCH   2  45
TORSDOF 6
REMARK  Name = /Users/chinazoemeh/HopeMScP/data/ligands/BRD4-BD1_BRD4-BD1_48_7K6G/BRD4-BD1_BRD4-BD1_48_7K6G.pdb
REMARK  24 active torsions:
REMARK  status: ('A' for Active; 'I' for Inactive)
REMARK    1  A    between atoms: C13_1  and  N14_38
REMARK    2  A    between atoms: C02_10  and  O03_45
REMARK    3  A    between atoms: C04_11  and  O03_45
REMARK    4  A    between atoms: C05_12  and  N25_40
REMARK    5  A    between atoms: C08_15  and  C09_16
REMARK    6  A    between atoms: C37_27  and  N34_43
REMARK    7  A    between atoms: C13_48  and  N14_85
REMARK    8  A    between atoms: C02_57  and  O03_92
REMARK    9  A    between atoms: C04_58  and  O03_92
REMARK   10  A    between atoms: C05_59  and  N25_87
REMARK   11  A    between atoms: C08_62  and  C09_63
REMARK   12  A    between atoms: C37_74  and  N34_90
REMARK   13  A    between atoms: C13_95  and  N14_132
REMARK   14  A    between atoms: C02_104  and  O03_139
REMARK   15  A    between atoms: C04_105  and  O03_139
REMARK   16  A    between atoms: C05_106  and  N25_134
REMARK   17  A    between atoms: C08_109  and  C09_110
REMARK   18  A    between atoms: C37_121  and  N34_137
REMARK   19  A    between atoms: C13_142  and  N14_179
REMARK   20  A    between atoms: C02_151  and  O03_186
REMARK   21  A    between atoms: C04_152  and  O03_186
REMARK   22  A    between atoms: C05_153  and  N25_181
REMARK   23  A    between atoms: C08_156  and  C09_157
REMARK   24  A    between atoms: C37_168  and  N34_184
REMARK                            x       y       z     vdW  Elec       q    Type
REMARK                         _______ _______ _______ _____ _____    ______ ____
ROOT
ATOM      1  C24 VYJ B 201      -4.993 -33.554 -24.928  0.00  0.00    +0.000 A 
ATOM      2  C04 VYJ B 201      -4.326 -33.661 -23.700  0.00  0.00    +0.000 A 
ATOM      3  C05 VYJ B 201      -3.909 -34.908 -23.220  0.00  0.00    +0.000 A 
ATOM      4  C06 VYJ B 201      -4.156 -36.060 -23.985  0.00  0.00    +0.000 A 
ATOM      5  C07 VYJ B 201      -4.803 -35.952 -25.204  0.00  0.00    +0.000 A 
ATOM      6  C08 VYJ B 201      -5.236 -34.701 -25.708  0.00  0.00    +0.000 A 
ENDROOT
BRANCH   3  19
ATOM      7  C26 VYJ B 201      -2.545 -35.742 -21.338  0.00  0.00    +0.000 C 
ATOM      8  C28 VYJ B 201      -1.208 -36.410 -19.514  0.00  0.00    +0.000 C 
ATOM      9  C29 VYJ B 201      -1.041 -37.692 -20.061  0.00  0.00    +0.000 C 
ATOM     10  C31 VYJ B 201      -0.677 -39.906 -19.196  0.00  0.00    +0.000 C 
ATOM     11  C32 VYJ B 201      -1.795 -40.507 -19.849  0.00  0.00    +0.000 A 
ATOM     12  C33 VYJ B 201      -2.213 -40.162 -21.177  0.00  0.00    +0.000 A 
ATOM     13  C35 VYJ B 201      -1.667 -37.956 -21.304  0.00  0.00    +0.000 C 
ATOM     14  C42 VYJ B 201      -3.344 -40.824 -21.732  0.00  0.00    +0.000 A 
ATOM     15  C43 VYJ B 201      -4.040 -41.816 -21.021  0.00  0.00    +0.000 A 
ATOM     16  C44 VYJ B 201      -3.625 -42.150 -19.726  0.00  0.00    +0.000 A 
ATOM     17  C45 VYJ B 201      -2.518 -41.511 -19.147  0.00  0.00    +0.000 A 
ATOM     18  C47 VYJ B 201       1.012 -38.170 -18.831  0.00  0.00    +0.000 C 
ATOM     19  N25 VYJ B 201      -3.289 -34.837 -22.014  0.00  0.00    +0.000 NA
ATOM     20  N27 VYJ B 201      -1.941 -35.485 -20.163  0.00  0.00    +0.000 NA
ATOM     21  N30 VYJ B 201      -0.262 -38.614 -19.401  0.00  0.00    +0.000 N 
ATOM     22  N34 VYJ B 201      -1.585 -39.180 -21.935  0.00  0.00    +0.000 N 
ATOM     23  N36 VYJ B 201      -2.411 -36.979 -21.888  0.00  0.00    +0.000 NA
ATOM     24  O46 VYJ B 201      -0.022 -40.602 -18.390  0.00  0.00    +0.000 OA
BRANCH  22  25
ATOM     25  C37 VYJ B 201      -1.591 -39.221 -23.407  0.00  0.00    +0.000 C 
ATOM     26  C38 VYJ B 201      -0.634 -38.199 -24.078  0.00  0.00    +0.000 C 
ATOM     27  C39 VYJ B 201      -0.373 -38.705 -25.512  0.00  0.00    +0.000 C 
ATOM     28  C40 VYJ B 201      -0.276 -40.224 -25.320  0.00  0.00    +0.000 C 
ATOM     29  C41 VYJ B 201      -1.209 -40.546 -24.126  0.00  0.00    +0.000 C 
ENDBRANCH  22  25
ENDBRANCH   3  19
BRANCH   6  33
ATOM     30  C13 VYJ B 201      -8.378 -37.975 -28.170  0.00  0.00    +0.000 C 
ATOM     31  C21 VYJ B 201      -7.324 -37.357 -29.119  0.00  0.00    +0.000 C 
ATOM     32  C22 VYJ B 201      -7.093 -35.868 -28.796  0.00  0.00    +0.000 C 
ATOM     33  C09 VYJ B 201      -5.897 -34.726 -26.975  0.00  0.00    +0.000 C 
ATOM     34  C11 VYJ B 201      -7.752 -36.256 -26.399  0.00  0.00    +0.000 C 
ATOM     35  C12 VYJ B 201      -7.955 -37.762 -26.695  0.00  0.00    +0.000 C 
ATOM     36  N10 VYJ B 201      -6.966 -35.524 -27.387  0.00  0.00    +0.000 N 
ATOM     37  O23 VYJ B 201      -5.404 -33.941 -27.831  0.00  0.00    +0.000 OA
BRANCH  30  43
ATOM     38  C15 VYJ B 201      -9.809 -40.010 -27.798  0.00  0.00    +0.000 C 
ATOM     39  C20 VYJ B 201      -9.128 -43.720 -28.578  0.00  0.00    +0.000 C 
ATOM     40  C16 VYJ B 201     -10.067 -41.454 -28.264  0.00  0.00    +0.000 C 
ATOM     41  C18 VYJ B 201      -7.591 -41.764 -28.659  0.00  0.00    +0.000 C 
ATOM     42  C19 VYJ B 201      -7.362 -40.290 -28.264  0.00  0.00    +0.000 C 
ATOM     43  N14 VYJ B 201      -8.577 -39.430 -28.417  0.00  0.00    +0.000 NA
ATOM     44  N17 VYJ B 201      -8.869 -42.329 -28.123  0.00  0.00    +0.000 NA
ENDBRANCH  30  43
ENDBRANCH   6  33
BRANCH   2  45
ATOM     45  O03 VYJ B 201      -4.070 -32.579 -22.898  0.00  0.00    +0.000 OA
BRANCH  45  47
ATOM     46  C01 VYJ B 201      -3.664 -30.276 -22.551  0.00  0.00    +0.000 C 
ATOM     47  C02 VYJ B 201      -4.217 -31.302 -23.545  0.00  0.00    +0.000 C 
ENDBRANCH  45  47
ENDBRANCH   2  45
TORSDOF 6
