REMARK  Name = /Users/chinazoemeh/HopeMScP/data/ligands/BRD4-BD1_BRD4-BD1_74_6G0H/BRD4-BD1_BRD4-BD1_74_6G0H.pdb
REMARK  3 active torsions:
REMARK  status: ('A' for Active; 'I' for Inactive)
REMARK    1  A    between atoms: C1_1  and  O1_2
REMARK    2  A    between atoms: C1_1  and  C2_3
REMARK    3  A    between atoms: C2_3  and  O2_4
REMARK                            x       y       z     vdW  Elec       q    Type
REMARK                         _______ _______ _______ _____ _____    ______ ____
ROOT
ATOM      1  C1  EDO A 201     -20.775 128.850   1.516  0.00  0.00    +0.000 C 
ENDROOT
BRANCH   1   2
ATOM      2  O1  EDO A 201     -19.422 129.031   1.181  0.00  0.00    +0.000 OA
ATOM      3  HO1 EDO A 201     -19.391 129.733   0.702  0.00  0.00    +0.000 HD
ENDBRANCH   1   2
BRANCH   1   4
ATOM      4  C2  EDO A 201     -20.851 127.418   2.064  0.00  0.00    +0.000 C 
BRANCH   4   5
ATOM      5  O2  EDO A 201     -20.775 127.585   3.444  0.00  0.00    +0.000 OA
ATOM      6  HO2 EDO A 201     -20.784 126.802   3.776  0.00  0.00    +0.000 HD
ENDBRANCH   4   5
ENDBRANCH   1   4
TORSDOF 3
