REMARK  Name = /Users/chinazoemeh/HopeMScP/data/ligands/BRD4-BD1_BRD4-BD1_6_7EIG/BRD4-BD1_BRD4-BD1_6_7EIG.pdb
REMARK  3 active torsions:
REMARK  status: ('A' for Active; 'I' for Inactive)
REMARK    1  A    between atoms: C10_2  and  C8_20
REMARK    2  A    between atoms: C11_3  and  C19_9
REMARK    3  A    between atoms: C12_4  and  C16_7
REMARK                            x       y       z     vdW  Elec       q    Type
REMARK                         _______ _______ _______ _____ _____    ______ ____
ROOT
ATOM      1  C10 N03 A 201      20.485  30.918  37.455  0.00  0.00    +0.000 C 
ATOM      2  C11 N03 A 201      21.646  31.667  36.892  0.00  0.00    +0.000 C 
ATOM      3  C12 N03 A 201      21.011  32.308  35.705  0.00  0.00    +0.000 C 
ATOM      4  C13 N03 A 201      19.581  31.883  35.664  0.00  0.00    +0.000 C 
ATOM      5  C15 N03 A 201      18.559  32.283  34.630  0.00  0.00    +0.000 C 
ATOM      6  N14 N03 A 201      19.356  31.074  36.730  0.00  0.00    +0.000 NA
ENDROOT
BRANCH   1  13
ATOM      7  C1  N03 A 201      18.482  28.228  40.919  0.00  0.00    +0.000 A 
ATOM      8  C2  N03 A 201      19.365  28.872  40.126  0.00  0.00    +0.000 A 
ATOM      9  C3  N03 A 201      20.801  28.706  40.395  0.00  0.00    +0.000 A 
ATOM     10  C4  N03 A 201      21.277  27.984  41.471  0.00  0.00    +0.000 A 
ATOM     11  C5  N03 A 201      20.334  27.353  42.260  0.00  0.00    +0.000 A 
ATOM     12  C6  N03 A 201      18.970  27.486  41.967  0.00  0.00    +0.000 A 
ATOM     13  C8  N03 A 201      20.419  30.029  38.680  0.00  0.00    +0.000 A 
ATOM     14  N25 N03 A 201      18.003  26.912  42.672  0.00  0.00    +0.000 NA
ATOM     15  N7  N03 A 201      21.407  29.498  39.451  0.00  0.00    +0.000 NA
ATOM     16  N9  N03 A 201      19.187  29.664  39.056  0.00  0.00    +0.000 NA
ENDBRANCH   1  13
BRANCH   2  17
ATOM     17  C19 N03 A 201      23.045  31.790  37.368  0.00  0.00    +0.000 A 
ATOM     18  C20 N03 A 201      23.899  30.696  37.357  0.00  0.00    +0.000 A 
ATOM     19  C21 N03 A 201      25.204  30.848  37.810  0.00  0.00    +0.000 A 
ATOM     20  C22 N03 A 201      25.642  32.087  38.268  0.00  0.00    +0.000 A 
ATOM     21  C23 N03 A 201      24.787  33.182  38.270  0.00  0.00    +0.000 A 
ATOM     22  C24 N03 A 201      23.484  33.032  37.818  0.00  0.00    +0.000 A 
ENDBRANCH   2  17
BRANCH   3  23
ATOM     23  C16 N03 A 201      21.651  33.214  34.691  0.00  0.00    +0.000 C 
ATOM     24  C17 N03 A 201      23.042  32.895  34.230  0.00  0.00    +0.000 C 
ATOM     25  O18 N03 A 201      21.051  34.179  34.246  0.00  0.00    +0.000 OA
ENDBRANCH   3  23
TORSDOF 3
