REMARK  Name = /Users/chinazoemeh/HopeMScP/data/ligands/BRD4-BD1_BRD4-BD1_29_6U0D/BRD4-BD1_BRD4-BD1_29_6U0D.pdb
REMARK  0 active torsions:
REMARK  status: ('A' for Active; 'I' for Inactive)
REMARK                            x       y       z     vdW  Elec       q    Type
REMARK                         _______ _______ _______ _____ _____    ______ ____
ROOT
ATOM      1  S   DMS A 201     -12.637  -4.277  -0.348  0.00  0.00    +0.000 S 
ATOM      2  O   DMS A 201     -13.951  -3.546  -0.290  0.00  0.00    +0.000 OA
ATOM      3  C1  DMS A 201     -11.676  -3.613  -1.732  0.00  0.00    +0.000 C 
ATOM      4  C2  DMS A 201     -12.902  -5.950  -0.996  0.00  0.00    +0.000 C 
ENDROOT
TORSDOF 0
