REMARK  Name = /Users/chinazoemeh/HopeMScP/data/ligands/BRD4-BD1_BRD4-BD1_26_7X6T/BRD4-BD1_BRD4-BD1_26_7X6T.pdb
REMARK  8 active torsions:
REMARK  status: ('A' for Active; 'I' for Inactive)
REMARK    1  A    between atoms: C10_1  and  C09_14
REMARK    2  A    between atoms: C15_3  and  O16_29
REMARK    3  A    between atoms: C17_4  and  O16_29
REMARK    4  A    between atoms: C28_8  and  C29_21
REMARK    5  A    between atoms: C01_9  and  C02_10
REMARK    6  A    between atoms: C02_10  and  C03_11
REMARK    7  A    between atoms: C02_10  and  N06_23
REMARK    8  A    between atoms: C07_12  and  N06_23
REMARK                            x       y       z     vdW  Elec       q    Type
REMARK                         _______ _______ _______ _____ _____    ______ ____
ROOT
ATOM      1  C28 97F A 201     -11.862  -3.455  -1.177  0.00  0.00    +0.000 A 
ATOM      2  C07 97F A 201     -11.706  -5.799   1.427  0.00  0.00    +0.000 A 
ATOM      3  C08 97F A 201     -10.447  -6.356   1.275  0.00  0.00    +0.000 A 
ATOM      4  C09 97F A 201      -9.589  -5.899   0.248  0.00  0.00    +0.000 A 
ATOM      5  C25 97F A 201     -12.082  -4.800   0.513  0.00  0.00    +0.000 A 
ATOM      6  C29 97F A 201     -11.220  -2.752  -2.373  0.00  0.00    +0.000 C 
ATOM      7  N23 97F A 201      -9.982  -4.952  -0.607  0.00  0.00    +0.000 NA
ATOM      8  N24 97F A 201     -11.253  -4.421  -0.432  0.00  0.00    +0.000 N 
ATOM      9  N26 97F A 201     -13.218  -4.078   0.385  0.00  0.00    +0.000 NA
ATOM     10  N27 97F A 201     -13.053  -3.248  -0.672  0.00  0.00    +0.000 NA
ENDROOT
BRANCH   4  11
ATOM     11  C10 97F A 201      -8.220  -6.469  -0.039  0.00  0.00    +0.000 A 
ATOM     12  C13 97F A 201      -5.778  -7.570  -0.746  0.00  0.00    +0.000 A 
ATOM     13  C15 97F A 201      -7.410  -7.014   0.937  0.00  0.00    +0.000 A 
ATOM     14  C11 97F A 201      -7.811  -6.489  -1.365  0.00  0.00    +0.000 A 
ATOM     15  C12 97F A 201      -6.593  -7.032  -1.724  0.00  0.00    +0.000 A 
ATOM     16  C14 97F A 201      -6.190  -7.558   0.574  0.00  0.00    +0.000 A 
BRANCH  13  17
ATOM     17  O16 97F A 201      -7.812  -7.014   2.276  0.00  0.00    +0.000 OA
BRANCH  17  18
ATOM     18  C17 97F A 201      -7.522  -5.829   2.992  0.00  0.00    +0.000 A 
ATOM     19  C20 97F A 201      -7.066  -3.551   4.493  0.00  0.00    +0.000 A 
ATOM     20  C21 97F A 201      -7.933  -4.527   4.956  0.00  0.00    +0.000 A 
ATOM     21  C22 97F A 201      -8.153  -5.668   4.211  0.00  0.00    +0.000 A 
ATOM     22  C18 97F A 201      -6.658  -4.848   2.519  0.00  0.00    +0.000 A 
ATOM     23  C19 97F A 201      -6.425  -3.702   3.278  0.00  0.00    +0.000 A 
ENDBRANCH  17  18
ENDBRANCH  13  17
ENDBRANCH   4  11
BRANCH   2  24
ATOM     24  N06 97F A 201     -12.673  -6.167   2.444  0.00  0.00    +0.000 N 
ATOM     25 H061 97F A 201     -13.577  -5.736   2.430  0.00  0.00    +0.000 HD
BRANCH  24  27
ATOM     26  C01 97F A 201     -13.675  -7.723   4.028  0.00  0.00    +0.000 C 
ATOM     27  C02 97F A 201     -12.374  -7.140   3.484  0.00  0.00    +0.000 C 
BRANCH  27  28
ATOM     28  C03 97F A 201     -11.629  -6.461   4.621  0.00  0.00    +0.000 C 
ATOM     29  N04 97F A 201     -10.902  -7.318   5.515  0.00  0.00    +0.000 N 
ATOM     30  O05 97F A 201     -11.638  -5.275   4.776  0.00  0.00    +0.000 OA
ATOM     31 H042 97F A 201     -10.905  -8.310   5.371  0.00  0.00    +0.000 HD
ATOM     32 H041 97F A 201     -10.393  -6.925   6.282  0.00  0.00    +0.000 HD
ENDBRANCH  27  28
ENDBRANCH  24  27
ENDBRANCH   2  24
TORSDOF 6
