REMARK  Name = /Users/chinazoemeh/HopeMScP/data/ligands/BRD4-BD1_BRD4-BD1_52_6VUC/BRD4-BD1_BRD4-BD1_52_6VUC.pdb
REMARK  3 active torsions:
REMARK  status: ('A' for Active; 'I' for Inactive)
REMARK    1  A    between atoms: C05_4  and  C06_5
REMARK    2  A    between atoms: C09_8  and  S10_22
REMARK    3  A    between atoms: N11_18  and  S10_22
REMARK                            x       y       z     vdW  Elec       q    Type
REMARK                         _______ _______ _______ _____ _____    ______ ____
ROOT
ATOM      1  C06 RLS A 201     -14.114  -3.499  10.197  0.00  0.00    +0.000 A 
ATOM      2  C07 RLS A 201     -13.915  -2.160  10.537  0.00  0.00    +0.000 A 
ATOM      3  C08 RLS A 201     -14.145  -1.122   9.635  0.00  0.00    +0.000 A 
ATOM      4  C09 RLS A 201     -14.601  -1.335   8.334  0.00  0.00    +0.000 A 
ATOM      5  C19 RLS A 201     -14.765  -2.693   8.008  0.00  0.00    +0.000 A 
ATOM      6  C20 RLS A 201     -14.537  -3.746   8.910  0.00  0.00    +0.000 A 
ENDROOT
BRANCH   1  10
ATOM      7  C01 RLS A 201     -10.435  -5.410  12.772  0.00  0.00    +0.000 C 
ATOM      8  C03 RLS A 201     -12.045  -6.358  11.121  0.00  0.00    +0.000 C 
ATOM      9  C04 RLS A 201     -13.354  -5.910  10.448  0.00  0.00    +0.000 C 
ATOM     10  C05 RLS A 201     -13.828  -4.599  11.136  0.00  0.00    +0.000 C 
ATOM     11  C21 RLS A 201     -12.581  -4.199  11.959  0.00  0.00    +0.000 C 
ATOM     12  N02 RLS A 201     -11.641  -5.312  11.987  0.00  0.00    +0.000 N 
ATOM     13  O22 RLS A 201     -11.423  -7.378  10.973  0.00  0.00    +0.000 OA
ENDBRANCH   1  10
BRANCH   4  16
ATOM     14  O17 RLS A 201     -14.961   1.149   7.904  0.00  0.00    +0.000 OA
ATOM     15  O18 RLS A 201     -15.795  -0.492   6.258  0.00  0.00    +0.000 OA
ATOM     16  S10 RLS A 201     -14.805  -0.082   7.201  0.00  0.00    +0.000 S 
BRANCH  16  22
ATOM     17  C12 RLS A 201     -13.006  -1.126   5.509  0.00  0.00    +0.000 C 
ATOM     18  C13 RLS A 201     -11.837  -0.819   4.601  0.00  0.00    +0.000 C 
ATOM     19  C14 RLS A 201     -10.589  -0.477   5.383  0.00  0.00    +0.000 C 
ATOM     20  C15 RLS A 201     -10.893   0.631   6.373  0.00  0.00    +0.000 C 
ATOM     21  C16 RLS A 201     -12.115   0.295   7.228  0.00  0.00    +0.000 C 
ATOM     22  N11 RLS A 201     -13.375  -0.012   6.413  0.00  0.00    +0.000 NA
ENDBRANCH  16  22
ENDBRANCH   4  16
TORSDOF 3
