REMARK  Name = /Users/chinazoemeh/HopeMScP/data/ligands/BRD4-BD1_BRD4-BD1_80_7MRA/BRD4-BD1_BRD4-BD1_80_7MRA.pdb
REMARK  4 active torsions:
REMARK  status: ('A' for Active; 'I' for Inactive)
REMARK    1  A    between atoms: C11_1  and  C09_15
REMARK    2  A    between atoms: C17_5  and  S01_24
REMARK    3  A    between atoms: C15_18  and  N02_20
REMARK    4  A    between atoms: N02_20  and  S01_24
REMARK                            x       y       z     vdW  Elec       q    Type
REMARK                         _______ _______ _______ _____ _____    ______ ____
ROOT
ATOM      1  C11 ZMJ A 201      -8.242  -6.058  -0.653  0.00  0.00    +0.000 A 
ATOM      2  C13 ZMJ A 201      -6.053  -6.595   0.282  0.00  0.00    +0.000 A 
ATOM      3  C14 ZMJ A 201      -5.662  -7.164  -0.941  0.00  0.00    +0.000 A 
ATOM      4  C16 ZMJ A 201      -7.836  -6.633  -1.861  0.00  0.00    +0.000 A 
ATOM      5  C12 ZMJ A 201      -7.329  -6.030   0.431  0.00  0.00    +0.000 A 
ATOM      6  C15 ZMJ A 201      -6.556  -7.182  -2.016  0.00  0.00    +0.000 A 
ENDROOT
BRANCH   1  15
ATOM      7  C01 ZMJ A 201      -9.922  -4.432  -1.396  0.00  0.00    +0.000 A 
ATOM      8  C02 ZMJ A 201     -12.094  -4.235  -0.462  0.00  0.00    +0.000 A 
ATOM      9  C03 ZMJ A 201     -11.804  -5.307   0.425  0.00  0.00    +0.000 A 
ATOM     10  C04 ZMJ A 201     -12.781  -5.745   1.351  0.00  0.00    +0.000 A 
ATOM     11  C05 ZMJ A 201     -12.499  -6.787   2.243  0.00  0.00    +0.000 A 
ATOM     12  C06 ZMJ A 201     -11.248  -7.417   2.209  0.00  0.00    +0.000 A 
ATOM     13  C07 ZMJ A 201     -10.264  -7.009   1.301  0.00  0.00    +0.000 A 
ATOM     14  C08 ZMJ A 201     -10.524  -5.945   0.391  0.00  0.00    +0.000 A 
ATOM     15  C09 ZMJ A 201      -9.556  -5.490  -0.548  0.00  0.00    +0.000 A 
ATOM     16  C10 ZMJ A 201     -11.405  -2.735  -2.293  0.00  0.00    +0.000 C 
ATOM     17  N01 ZMJ A 201     -11.141  -3.828  -1.363  0.00  0.00    +0.000 N 
ATOM     18  O01 ZMJ A 201     -13.209  -3.645  -0.436  0.00  0.00    +0.000 OA
ENDBRANCH   1  15
BRANCH   6  19
ATOM     19  N02 ZMJ A 201      -6.108  -7.771  -3.160  0.00  0.00    +0.000 NA
BRANCH  19  22
ATOM     20  O02 ZMJ A 201      -6.056  -8.657  -5.574  0.00  0.00    +0.000 OA
ATOM     21  O03 ZMJ A 201      -8.370  -8.209  -4.414  0.00  0.00    +0.000 OA
ATOM     22  S01 ZMJ A 201      -6.904  -7.786  -4.635  0.00  0.00    +0.000 S 
BRANCH  22  23
ATOM     23  C17 ZMJ A 201      -6.909  -6.075  -5.261  0.00  0.00    +0.000 C 
ATOM     24  C18 ZMJ A 201      -5.488  -5.499  -5.393  0.00  0.00    +0.000 C 
ENDBRANCH  22  23
ENDBRANCH  19  22
ENDBRANCH   6  19
TORSDOF 4
