REMARK  Name = /Users/chinazoemeh/HopeMScP/data/ligands/BRD4-BD1_BRD4-BD1_73_6G0F/BRD4-BD1_BRD4-BD1_73_6G0F.pdb
REMARK  1 active torsions:
REMARK  status: ('A' for Active; 'I' for Inactive)
REMARK    1  A    between atoms: C1_1  and  C2_3
REMARK                            x       y       z     vdW  Elec       q    Type
REMARK                         _______ _______ _______ _____ _____    ______ ____
ROOT
ATOM      1  C1  EDO A 201     -24.630  -2.452  -6.260  0.00  0.00    +0.000 C 
ATOM      2  O1  EDO A 201     -24.977  -3.576  -7.071  0.00  0.00    +0.000 OA
ENDROOT
BRANCH   1   3
ATOM      3  C2  EDO A 201     -23.630  -1.556  -7.004  0.00  0.00    +0.000 C 
ATOM      4  O2  EDO A 201     -22.431  -2.280  -7.291  0.00  0.00    +0.000 OA
ENDBRANCH   1   3
TORSDOF 1
