REMARK  Name = /Users/chinazoemeh/HopeMScP/data/ligands/BRD4-BD1_BRD4-BD1_42_7MR7/BRD4-BD1_BRD4-BD1_42_7MR7.pdb
REMARK  3 active torsions:
REMARK  status: ('A' for Active; 'I' for Inactive)
REMARK    1  A    between atoms: C1_1  and  C2_3
REMARK    2  A    between atoms: C1_5  and  C2_7
REMARK    3  A    between atoms: C1_9  and  C2_11
REMARK                            x       y       z     vdW  Elec       q    Type
REMARK                         _______ _______ _______ _____ _____    ______ ____
ROOT
ATOM      1  C1  EDO A 301     -16.692  -1.620 -18.490  0.00  0.00    +0.000 C 
ATOM      2  O1  EDO A 301     -16.599  -2.804 -19.286  0.00  0.00    +0.000 OA
ENDROOT
BRANCH   1   3
ATOM      3  C2  EDO A 301     -15.425  -0.805 -18.691  0.00  0.00    +0.000 C 
ATOM      4  O2  EDO A 301     -14.346  -1.550 -18.130  0.00  0.00    +0.000 OA
ENDBRANCH   1   3
TORSDOF 1
REMARK  Name = /Users/chinazoemeh/HopeMScP/data/ligands/BRD4-BD1_BRD4-BD1_42_7MR7/BRD4-BD1_BRD4-BD1_42_7MR7.pdb
REMARK  3 active torsions:
REMARK  status: ('A' for Active; 'I' for Inactive)
REMARK    1  A    between atoms: C1_1  and  C2_3
REMARK    2  A    between atoms: C1_5  and  C2_7
REMARK    3  A    between atoms: C1_9  and  C2_11
REMARK                            x       y       z     vdW  Elec       q    Type
REMARK                         _______ _______ _______ _____ _____    ______ ____
ROOT
ATOM      1  C1  EDO B 201      -3.470   8.525  22.585  0.00  0.00    +0.000 C 
ATOM      2  O1  EDO B 201      -2.937   7.295  22.085  0.00  0.00    +0.000 OA
ENDROOT
BRANCH   1   3
ATOM      3  C2  EDO B 201      -4.174   9.269  21.455  0.00  0.00    +0.000 C 
ATOM      4  O2  EDO B 201      -5.256   8.472  20.941  0.00  0.00    +0.000 OA
ENDBRANCH   1   3
TORSDOF 1
REMARK  Name = /Users/chinazoemeh/HopeMScP/data/ligands/BRD4-BD1_BRD4-BD1_42_7MR7/BRD4-BD1_BRD4-BD1_42_7MR7.pdb
REMARK  3 active torsions:
REMARK  status: ('A' for Active; 'I' for Inactive)
REMARK    1  A    between atoms: C1_1  and  C2_3
REMARK    2  A    between atoms: C1_5  and  C2_7
REMARK    3  A    between atoms: C1_9  and  C2_11
REMARK                            x       y       z     vdW  Elec       q    Type
REMARK                         _______ _______ _______ _____ _____    ______ ____
ROOT
ATOM      1  C1  EDO B 202      -5.154  14.949  -0.062  0.00  0.00    +0.000 C 
ATOM      2  O1  EDO B 202      -3.895  15.470  -0.489  0.00  0.00    +0.000 OA
ENDROOT
BRANCH   1   3
ATOM      3  C2  EDO B 202      -6.027  16.142   0.308  0.00  0.00    +0.000 C 
ATOM      4  O2  EDO B 202      -6.117  17.050  -0.801  0.00  0.00    +0.000 OA
ENDBRANCH   1   3
TORSDOF 1
