REMARK  Name = /Users/chinazoemeh/HopeMScP/data/ligands/BRD4-BD1_BRD4-BD1_33_7EIL/BRD4-BD1_BRD4-BD1_33_7EIL.pdb
REMARK  5 active torsions:
REMARK  status: ('A' for Active; 'I' for Inactive)
REMARK    1  A    between atoms: C15_5  and  C17_6
REMARK    2  A    between atoms: C18_7  and  C25_14
REMARK    3  A    between atoms: C19_8  and  C23_12
REMARK    4  A    between atoms: C28_17  and  N31_32
REMARK    5  A    between atoms: C5_24  and  N7_33
REMARK                            x       y       z     vdW  Elec       q    Type
REMARK                         _______ _______ _______ _____ _____    ______ ____
ROOT
ATOM      1  C17 909 A 201       8.961   6.586  -0.886  0.00  0.00    +0.000 C 
ATOM      2  C18 909 A 201      10.118   7.154  -0.150  0.00  0.00    +0.000 C 
ATOM      3  C19 909 A 201      11.182   6.247  -0.661  0.00  0.00    +0.000 C 
ATOM      4  C20 909 A 201      10.544   5.289  -1.628  0.00  0.00    +0.000 C 
ATOM      5  C22 909 A 201      11.198   4.184  -2.409  0.00  0.00    +0.000 C 
ATOM      6  N21 909 A 201       9.231   5.571  -1.708  0.00  0.00    +0.000 NA
ENDROOT
BRANCH   1   8
ATOM      7  C1  909 A 201       4.799   9.021  -0.059  0.00  0.00    +0.000 A 
ATOM      8  C15 909 A 201       7.565   7.078  -0.858  0.00  0.00    +0.000 A 
ATOM      9  C2  909 A 201       5.832   8.196  -0.454  0.00  0.00    +0.000 A 
ATOM     10  C3  909 A 201       5.540   7.185  -1.497  0.00  0.00    +0.000 A 
ATOM     11  C4  909 A 201       4.261   7.088  -2.025  0.00  0.00    +0.000 A 
ATOM     12  C5  909 A 201       3.261   7.946  -1.585  0.00  0.00    +0.000 A 
ATOM     13  C6  909 A 201       3.523   8.898  -0.603  0.00  0.00    +0.000 A 
ATOM     14  N14 909 A 201       6.688   6.527  -1.713  0.00  0.00    +0.000 NA
ATOM     15  N16 909 A 201       7.129   8.087  -0.106  0.00  0.00    +0.000 NA
BRANCH  12  22
ATOM     16  C11 909 A 201       1.113   5.928  -3.143  0.00  0.00    +0.000 C 
ATOM     17  C12 909 A 201       1.774   7.268  -3.450  0.00  0.00    +0.000 C 
ATOM     18  C13 909 A 201      -0.689   4.801  -2.049  0.00  0.00    +0.000 C 
ATOM     19  C8  909 A 201       0.806   8.184  -1.350  0.00  0.00    +0.000 C 
ATOM     20  C9  909 A 201       0.167   6.824  -1.091  0.00  0.00    +0.000 C 
ATOM     21  N10 909 A 201      -0.114   6.120  -2.354  0.00  0.00    +0.000 NA
ATOM     22  N7  909 A 201       1.976   7.821  -2.125  0.00  0.00    +0.000 N 
ENDBRANCH  12  22
ENDBRANCH   1   8
BRANCH   2  23
ATOM     23  C25 909 A 201      10.186   8.279   0.836  0.00  0.00    +0.000 A 
ATOM     24  C26 909 A 201       9.905   9.587   0.452  0.00  0.00    +0.000 A 
ATOM     25  C27 909 A 201       9.982  10.615   1.386  0.00  0.00    +0.000 A 
ATOM     26  C28 909 A 201      10.333  10.353   2.705  0.00  0.00    +0.000 A 
ATOM     27  C29 909 A 201      10.631   9.048   3.083  0.00  0.00    +0.000 A 
ATOM     28  C30 909 A 201      10.549   8.015   2.155  0.00  0.00    +0.000 A 
BRANCH  26  31
ATOM     29  C32 909 A 201       9.959  11.409   4.832  0.00  0.00    +0.000 C 
ATOM     30  C34 909 A 201      10.175  12.718   5.543  0.00  0.00    +0.000 C 
ATOM     31  N31 909 A 201      10.410  11.394   3.576  0.00  0.00    +0.000 NA
ATOM     32  O33 909 A 201       9.419  10.459   5.383  0.00  0.00    +0.000 OA
ENDBRANCH  26  31
ENDBRANCH   2  23
BRANCH   3  33
ATOM     33  C23 909 A 201      12.647   6.249  -0.328  0.00  0.00    +0.000 C 
ATOM     34  C24 909 A 201      13.261   7.470   0.296  0.00  0.00    +0.000 C 
ATOM     35  O35 909 A 201      13.343   5.287  -0.600  0.00  0.00    +0.000 OA
ENDBRANCH   3  33
TORSDOF 5
