REMARK  Name = /Users/chinazoemeh/HopeMScP/data/ligands/BRD4-BD1_BRD4-BD1_69_6V1K/BRD4-BD1_BRD4-BD1_69_6V1K.pdb
REMARK  5 active torsions:
REMARK  status: ('A' for Active; 'I' for Inactive)
REMARK    1  A    between atoms: C1_1  and  C2_3
REMARK    2  A    between atoms: C1_5  and  C2_7
REMARK    3  A    between atoms: C1_9  and  C2_11
REMARK    4  A    between atoms: C1_13  and  C2_15
REMARK    5  A    between atoms: C1_17  and  C2_19
REMARK                            x       y       z     vdW  Elec       q    Type
REMARK                         _______ _______ _______ _____ _____    ______ ____
ROOT
ATOM      1  C1  EDO A 202      60.182  44.097   7.162  0.00  0.00    +0.000 C 
ATOM      2  O1  EDO A 202      59.027  43.435   7.698  0.00  0.00    +0.000 OA
ENDROOT
BRANCH   1   3
ATOM      3  C2  EDO A 202      61.070  43.082   6.457  0.00  0.00    +0.000 C 
ATOM      4  O2  EDO A 202      61.613  42.191   7.436  0.00  0.00    +0.000 OA
ENDBRANCH   1   3
TORSDOF 1
REMARK  Name = /Users/chinazoemeh/HopeMScP/data/ligands/BRD4-BD1_BRD4-BD1_69_6V1K/BRD4-BD1_BRD4-BD1_69_6V1K.pdb
REMARK  5 active torsions:
REMARK  status: ('A' for Active; 'I' for Inactive)
REMARK    1  A    between atoms: C1_1  and  C2_3
REMARK    2  A    between atoms: C1_5  and  C2_7
REMARK    3  A    between atoms: C1_9  and  C2_11
REMARK    4  A    between atoms: C1_13  and  C2_15
REMARK    5  A    between atoms: C1_17  and  C2_19
REMARK                            x       y       z     vdW  Elec       q    Type
REMARK                         _______ _______ _______ _____ _____    ______ ____
ROOT
ATOM      1  C1  EDO A 203      44.078  57.586  19.259  0.00  0.00    +0.000 C 
ATOM      2  O1  EDO A 203      44.561  57.413  20.599  0.00  0.00    +0.000 OA
ENDROOT
BRANCH   1   3
ATOM      3  C2  EDO A 203      42.557  57.506  19.219  0.00  0.00    +0.000 C 
ATOM      4  O2  EDO A 203      41.982  58.335  20.233  0.00  0.00    +0.000 OA
ENDBRANCH   1   3
TORSDOF 1
REMARK  Name = /Users/chinazoemeh/HopeMScP/data/ligands/BRD4-BD1_BRD4-BD1_69_6V1K/BRD4-BD1_BRD4-BD1_69_6V1K.pdb
REMARK  5 active torsions:
REMARK  status: ('A' for Active; 'I' for Inactive)
REMARK    1  A    between atoms: C1_1  and  C2_3
REMARK    2  A    between atoms: C1_5  and  C2_7
REMARK    3  A    between atoms: C1_9  and  C2_11
REMARK    4  A    between atoms: C1_13  and  C2_15
REMARK    5  A    between atoms: C1_17  and  C2_19
REMARK                            x       y       z     vdW  Elec       q    Type
REMARK                         _______ _______ _______ _____ _____    ______ ____
ROOT
ATOM      1  C1  EDO A 204      56.947  41.811  16.464  0.00  0.00    +0.000 C 
ATOM      2  O1  EDO A 204      57.208  42.616  17.621  0.00  0.00    +0.000 OA
ENDROOT
BRANCH   1   3
ATOM      3  C2  EDO A 204      55.449  41.780  16.181  0.00  0.00    +0.000 C 
ATOM      4  O2  EDO A 204      55.171  40.799  15.172  0.00  0.00    +0.000 OA
ENDBRANCH   1   3
TORSDOF 1
REMARK  Name = /Users/chinazoemeh/HopeMScP/data/ligands/BRD4-BD1_BRD4-BD1_69_6V1K/BRD4-BD1_BRD4-BD1_69_6V1K.pdb
REMARK  5 active torsions:
REMARK  status: ('A' for Active; 'I' for Inactive)
REMARK    1  A    between atoms: C1_1  and  C2_3
REMARK    2  A    between atoms: C1_5  and  C2_7
REMARK    3  A    between atoms: C1_9  and  C2_11
REMARK    4  A    between atoms: C1_13  and  C2_15
REMARK    5  A    between atoms: C1_17  and  C2_19
REMARK                            x       y       z     vdW  Elec       q    Type
REMARK                         _______ _______ _______ _____ _____    ______ ____
ROOT
ATOM      1  C1  EDO A 205      54.947  51.446  16.579  0.00  0.00    +0.000 C 
ATOM      2  O1  EDO A 205      54.975  52.442  15.555  0.00  0.00    +0.000 OA
ENDROOT
BRANCH   1   3
ATOM      3  C2  EDO A 205      55.054  52.140  17.934  0.00  0.00    +0.000 C 
ATOM      4  O2  EDO A 205      55.397  51.175  18.930  0.00  0.00    +0.000 OA
ENDBRANCH   1   3
TORSDOF 1
REMARK  Name = /Users/chinazoemeh/HopeMScP/data/ligands/BRD4-BD1_BRD4-BD1_69_6V1K/BRD4-BD1_BRD4-BD1_69_6V1K.pdb
REMARK  5 active torsions:
REMARK  status: ('A' for Active; 'I' for Inactive)
REMARK    1  A    between atoms: C1_1  and  C2_3
REMARK    2  A    between atoms: C1_5  and  C2_7
REMARK    3  A    between atoms: C1_9  and  C2_11
REMARK    4  A    between atoms: C1_13  and  C2_15
REMARK    5  A    between atoms: C1_17  and  C2_19
REMARK                            x       y       z     vdW  Elec       q    Type
REMARK                         _______ _______ _______ _____ _____    ______ ____
ROOT
ATOM      1  C1  EDO A 206      46.084  62.061  28.838  0.00  0.00    +0.000 C 
ATOM      2  O1  EDO A 206      46.871  61.163  29.629  0.00  0.00    +0.000 OA
ENDROOT
BRANCH   1   3
ATOM      3  C2  EDO A 206      46.366  61.835  27.355  0.00  0.00    +0.000 C 
ATOM      4  O2  EDO A 206      47.690  62.286  27.039  0.00  0.00    +0.000 OA
ENDBRANCH   1   3
TORSDOF 1
