REMARK  Name = /Users/chinazoemeh/HopeMScP/data/ligands/BRD4-BD1_BRD4-BD1_96_6PSB/BRD4-BD1_BRD4-BD1_96_6PSB.pdb
REMARK  2 active torsions:
REMARK  status: ('A' for Active; 'I' for Inactive)
REMARK    1  A    between atoms: C09_6  and  C10_7
REMARK    2  A    between atoms: C09_6  and  N08_19
REMARK                            x       y       z     vdW  Elec       q    Type
REMARK                         _______ _______ _______ _____ _____    ______ ____
ROOT
ATOM      1  C02 Y18 A 201      17.267 -15.388  -3.404  0.00  0.00    +0.000 C 
ATOM      2  C04 Y18 A 201      18.621 -17.173  -4.652  0.00  0.00    +0.000 C 
ATOM      3  C05 Y18 A 201      18.285 -16.414  -5.887  0.00  0.00    +0.000 C 
ATOM      4  C06 Y18 A 201      17.610 -14.488  -4.463  0.00  0.00    +0.000 A 
ATOM      5  C07 Y18 A 201      18.093 -15.016  -5.684  0.00  0.00    +0.000 A 
ATOM      6  C17 Y18 A 201      17.948 -12.734  -5.906  0.00  0.00    +0.000 A 
ATOM      7  C18 Y18 A 201      17.509 -13.112  -4.626  0.00  0.00    +0.000 A 
ATOM      8  C19 Y18 A 201      17.106 -12.101  -3.763  0.00  0.00    +0.000 A 
ATOM      9  C20 Y18 A 201      17.160 -10.800  -4.210  0.00  0.00    +0.000 A 
ATOM     10  C21 Y18 A 201      17.604 -10.456  -5.515  0.00  0.00    +0.000 A 
ATOM     11  C22 Y18 A 201      17.990 -11.420  -6.388  0.00  0.00    +0.000 A 
ATOM     12  N03 Y18 A 201      17.720 -16.763  -3.543  0.00  0.00    +0.000 NA
ATOM     13  N08 Y18 A 201      18.268 -13.963  -6.543  0.00  0.00    +0.000 N 
ATOM     14  O01 Y18 A 201      16.557 -15.056  -2.461  0.00  0.00    +0.000 OA
ENDROOT
BRANCH  13  15
ATOM     15  C09 Y18 A 201      18.785 -13.853  -7.933  0.00  0.00    +0.000 C 
BRANCH  15  16
ATOM     16  C10 Y18 A 201      17.621 -14.153  -9.067  0.00  0.00    +0.000 C 
ATOM     17  C11 Y18 A 201      16.647 -12.987  -9.114  0.00  0.00    +0.000 C 
ATOM     18  C13 Y18 A 201      14.357 -12.800 -10.211  0.00  0.00    +0.000 C 
ATOM     19  C14 Y18 A 201      15.457 -15.038  -9.461  0.00  0.00    +0.000 C 
ATOM     20  C15 Y18 A 201      16.792 -15.441  -8.777  0.00  0.00    +0.000 C 
ATOM     21  N12 Y18 A 201      15.419 -13.650  -9.657  0.00  0.00    +0.000 N 
ATOM     22  O16 Y18 A 201      14.557 -15.777  -9.787  0.00  0.00    +0.000 OA
ENDBRANCH  15  16
ENDBRANCH  13  15
TORSDOF 2
