REMARK  Name = /Users/chinazoemeh/HopeMScP/data/ligands/BRD4-BD1_BRD4-BD1_102_6U6K/BRD4-BD1_BRD4-BD1_102_6U6K.pdb
REMARK  12 active torsions:
REMARK  status: ('A' for Active; 'I' for Inactive)
REMARK    1  A    between atoms: NZ_4  and  CE_5
REMARK    2  A    between atoms: CE_5  and  CD_6
REMARK    3  A    between atoms: CD_6  and  CG_7
REMARK    4  A    between atoms: CG_7  and  CB_8
REMARK    5  A    between atoms: CB_8  and  CA_9
REMARK    6  A    between atoms: CA_9  and  C_11
REMARK    7  A    between atoms: NZ_16  and  CE_17
REMARK    8  A    between atoms: CE_17  and  CD_18
REMARK    9  A    between atoms: CD_18  and  CG_19
REMARK   10  A    between atoms: CG_19  and  CB_20
REMARK   11  A    between atoms: CB_20  and  CA_21
REMARK   12  A    between atoms: CA_21  and  C_23
REMARK                            x       y       z     vdW  Elec       q    Type
REMARK                         _______ _______ _______ _____ _____    ______ ____
ROOT
ATOM      1  CD  ALY C   6     -10.889  28.898   4.771  0.00  0.00    +0.000 C 
ENDROOT
BRANCH   1   2
ATOM      2  CE  ALY C   6     -12.195  29.289   5.488  0.00  0.00    +0.000 C 
BRANCH   2   6
ATOM      3  OH  ALY C   6     -13.655  26.943   5.017  0.00  0.00    +0.000 OA
ATOM      4  CH  ALY C   6     -13.298  27.183   6.187  0.00  0.00    +0.000 C 
ATOM      5  CH3 ALY C   6     -13.634  26.238   7.325  0.00  0.00    +0.000 C 
ATOM      6  NZ  ALY C   6     -12.580  28.326   6.492  0.00  0.00    +0.000 NA
ENDBRANCH   2   6
ENDBRANCH   1   2
BRANCH   1   7
ATOM      7  CG  ALY C   6     -10.445  29.939   3.758  0.00  0.00    +0.000 C 
BRANCH   7   8
ATOM      8  CB  ALY C   6      -9.360  29.375   2.830  0.00  0.00    +0.000 C 
BRANCH   8   9
ATOM      9  CA  ALY C   6      -8.061  29.089   3.611  0.00  0.00    +0.000 C 
ATOM     10  N   ALY C   6      -7.549  30.260   4.325  0.00  0.00    +0.000 NA
BRANCH   9  11
ATOM     11  C   ALY C   6      -7.047  28.450   2.634  0.00  0.00    +0.000 C 
ATOM     12  O   ALY C   6      -6.915  27.229   2.477  0.00  0.00    +0.000 OA
ENDBRANCH   9  11
ENDBRANCH   8   9
ENDBRANCH   7   8
ENDBRANCH   1   7
TORSDOF 6
REMARK  Name = /Users/chinazoemeh/HopeMScP/data/ligands/BRD4-BD1_BRD4-BD1_102_6U6K/BRD4-BD1_BRD4-BD1_102_6U6K.pdb
REMARK  12 active torsions:
REMARK  status: ('A' for Active; 'I' for Inactive)
REMARK    1  A    between atoms: NZ_4  and  CE_5
REMARK    2  A    between atoms: CE_5  and  CD_6
REMARK    3  A    between atoms: CD_6  and  CG_7
REMARK    4  A    between atoms: CG_7  and  CB_8
REMARK    5  A    between atoms: CB_8  and  CA_9
REMARK    6  A    between atoms: CA_9  and  C_11
REMARK    7  A    between atoms: NZ_16  and  CE_17
REMARK    8  A    between atoms: CE_17  and  CD_18
REMARK    9  A    between atoms: CD_18  and  CG_19
REMARK   10  A    between atoms: CG_19  and  CB_20
REMARK   11  A    between atoms: CB_20  and  CA_21
REMARK   12  A    between atoms: CA_21  and  C_23
REMARK                            x       y       z     vdW  Elec       q    Type
REMARK                         _______ _______ _______ _____ _____    ______ ____
ROOT
ATOM      1  CD  ALY C   9      -2.003  24.462   8.086  0.00  0.00    +0.000 C 
ENDROOT
BRANCH   1   2
ATOM      2  CE  ALY C   9      -1.548  23.055   7.727  0.00  0.00    +0.000 C 
BRANCH   2   6
ATOM      3  OH  ALY C   9      -0.701  20.868   6.008  0.00  0.00    +0.000 OA
ATOM      4  CH  ALY C   9      -1.747  21.497   5.763  0.00  0.00    +0.000 C 
ATOM      5  CH3 ALY C   9      -2.600  21.159   4.561  0.00  0.00    +0.000 C 
ATOM      6  NZ  ALY C   9      -2.189  22.549   6.548  0.00  0.00    +0.000 NA
ENDBRANCH   2   6
ENDBRANCH   1   2
BRANCH   1   7
ATOM      7  CG  ALY C   9      -1.575  25.433   6.997  0.00  0.00    +0.000 C 
BRANCH   7   8
ATOM      8  CB  ALY C   9      -2.123  26.803   7.303  0.00  0.00    +0.000 C 
BRANCH   8   9
ATOM      9  CA  ALY C   9      -1.606  27.923   6.379  0.00  0.00    +0.000 C 
ATOM     10  N   ALY C   9      -1.808  27.718   4.969  0.00  0.00    +0.000 NA
BRANCH   9  11
ATOM     11  C   ALY C   9      -0.119  28.101   6.617  0.00  0.00    +0.000 C 
ATOM     12  O   ALY C   9       0.758  27.700   5.845  0.00  0.00    +0.000 OA
ENDBRANCH   9  11
ENDBRANCH   8   9
ENDBRANCH   7   8
ENDBRANCH   1   7
TORSDOF 6
