REMARK  Name = /Users/chinazoemeh/HopeMScP/data/ligands/BRD4-BD1_BRD4-BD1_19_6LIH/BRD4-BD1_BRD4-BD1_19_6LIH.pdb
REMARK  7 active torsions:
REMARK  status: ('A' for Active; 'I' for Inactive)
REMARK    1  A    between atoms: C10_1  and  C08_14
REMARK    2  A    between atoms: C20_3  and  C21_4
REMARK    3  A    between atoms: C01_9  and  N02_24
REMARK    4  A    between atoms: C08_14  and  C09_15
REMARK    5  A    between atoms: C08_14  and  N07_25
REMARK    6  A    between atoms: C11_16  and  C12_17
REMARK    7  A    between atoms: C14_18  and  N15_26
REMARK                            x       y       z     vdW  Elec       q    Type
REMARK                         _______ _______ _______ _____ _____    ______ ____
ROOT
ATOM      1  C13 EDF A 201     -11.936  -7.673   1.117  0.00  0.00    +0.000 A 
ATOM      2  C28 EDF A 201     -15.498  -5.466  -0.105  0.00  0.00    +0.000 C 
ATOM      3  C01 EDF A 201     -13.957  -3.799  -1.219  0.00  0.00    +0.000 C 
ATOM      4  C03 EDF A 201     -13.003  -5.944  -0.226  0.00  0.00    +0.000 A 
ATOM      5  C04 EDF A 201     -11.790  -5.721  -0.926  0.00  0.00    +0.000 A 
ATOM      6  C05 EDF A 201     -10.660  -6.498  -0.628  0.00  0.00    +0.000 A 
ATOM      7  C06 EDF A 201     -13.089  -6.890   0.796  0.00  0.00    +0.000 A 
ATOM      8  C11 EDF A 201     -15.529  -6.881   0.631  0.00  0.00    +0.000 C 
ATOM      9  C12 EDF A 201     -15.606  -7.942  -0.484  0.00  0.00    +0.000 C 
ATOM     10  C14 EDF A 201     -10.721  -7.451   0.390  0.00  0.00    +0.000 A 
ATOM     11  N02 EDF A 201     -14.172  -5.090  -0.537  0.00  0.00    +0.000 N 
ATOM     12  N07 EDF A 201     -14.391  -7.068   1.473  0.00  0.00    +0.000 N 
ATOM     13  O29 EDF A 201     -16.430  -4.811  -0.323  0.00  0.00    +0.000 OA
ENDROOT
BRANCH  10  18
ATOM     14  C20 EDF A 201      -9.824  -9.157   4.108  0.00  0.00    +0.000 A 
ATOM     15  C16 EDF A 201      -9.282  -8.864   1.906  0.00  0.00    +0.000 A 
ATOM     16  C18 EDF A 201      -8.063 -10.392   3.107  0.00  0.00    +0.000 A 
ATOM     17  C19 EDF A 201      -8.813 -10.126   4.226  0.00  0.00    +0.000 A 
ATOM     18  N15 EDF A 201      -9.509  -8.204   0.635  0.00  0.00    +0.000 N 
ATOM     19  N17 EDF A 201      -8.303  -9.772   1.971  0.00  0.00    +0.000 NA
ATOM     20  N27 EDF A 201     -10.008  -8.559   2.956  0.00  0.00    +0.000 NA
ATOM     21 H151 EDF A 201      -8.914  -8.260   0.017  0.00  0.00    +0.000 HD
BRANCH  14  22
ATOM     22  C21 EDF A 201     -10.713  -8.806   5.353  0.00  0.00    +0.000 A 
ATOM     23  C22 EDF A 201     -11.155  -9.838   6.176  0.00  0.00    +0.000 A 
ATOM     24  C24 EDF A 201     -12.307  -8.193   7.594  0.00  0.00    +0.000 A 
ATOM     25  C26 EDF A 201     -11.052  -7.464   5.632  0.00  0.00    +0.000 A 
ATOM     26  C23 EDF A 201     -11.958  -9.545   7.305  0.00  0.00    +0.000 A 
ATOM     27  C25 EDF A 201     -11.858  -7.168   6.772  0.00  0.00    +0.000 A 
ENDBRANCH  14  22
ENDBRANCH  10  18
BRANCH  12  29
ATOM     28  C10 EDF A 201     -14.388  -9.472   2.233  0.00  0.00    +0.000 C 
ATOM     29  C08 EDF A 201     -14.444  -8.000   2.691  0.00  0.00    +0.000 C 
ATOM     30  C09 EDF A 201     -15.691  -7.738   3.594  0.00  0.00    +0.000 C 
ENDBRANCH  12  29
TORSDOF 3
