REMARK  Name = /Users/chinazoemeh/HopeMScP/data/ligands/BRD4-BD1_BRD4-BD1_41_8GQ0/BRD4-BD1_BRD4-BD1_41_8GQ0.pdb
REMARK  0 active torsions:
REMARK  status: ('A' for Active; 'I' for Inactive)
REMARK                            x       y       z     vdW  Elec       q    Type
REMARK                         _______ _______ _______ _____ _____    ______ ____
ROOT
ATOM      1  C   FMT A 201      -8.142 -14.014  88.823  0.00  0.00    +0.000 C 
ATOM      2  O1  FMT A 201      -9.259 -14.333  89.205  0.00  0.00    +0.000 OA
ATOM      3  O2  FMT A 201      -7.668 -12.879  88.925  0.00  0.00    +0.000 OA
ENDROOT
TORSDOF 0
REMARK  Name = /Users/chinazoemeh/HopeMScP/data/ligands/BRD4-BD1_BRD4-BD1_41_8GQ0/BRD4-BD1_BRD4-BD1_41_8GQ0.pdb
REMARK  0 active torsions:
REMARK  status: ('A' for Active; 'I' for Inactive)
REMARK                            x       y       z     vdW  Elec       q    Type
REMARK                         _______ _______ _______ _____ _____    ______ ____
ROOT
ATOM      1  C   FMT A 202     -20.687  -7.293  69.864  0.00  0.00    +0.000 C 
ATOM      2  O1  FMT A 202     -21.535  -7.505  70.731  0.00  0.00    +0.000 OA
ATOM      3  O2  FMT A 202     -20.395  -6.177  69.432  0.00  0.00    +0.000 OA
ENDROOT
TORSDOF 0
REMARK  Name = /Users/chinazoemeh/HopeMScP/data/ligands/BRD4-BD1_BRD4-BD1_41_8GQ0/BRD4-BD1_BRD4-BD1_41_8GQ0.pdb
REMARK  0 active torsions:
REMARK  status: ('A' for Active; 'I' for Inactive)
REMARK                            x       y       z     vdW  Elec       q    Type
REMARK                         _______ _______ _______ _____ _____    ______ ____
ROOT
ATOM      1  C   FMT A 203     -20.354  -7.101  73.447  0.00  0.00    +0.000 C 
ATOM      2  O1  FMT A 203     -20.475  -6.040  72.817  0.00  0.00    +0.000 OA
ATOM      3  O2  FMT A 203     -19.285  -7.505  73.936  0.00  0.00    +0.000 OA
ENDROOT
TORSDOF 0
REMARK  Name = /Users/chinazoemeh/HopeMScP/data/ligands/BRD4-BD1_BRD4-BD1_41_8GQ0/BRD4-BD1_BRD4-BD1_41_8GQ0.pdb
REMARK  0 active torsions:
REMARK  status: ('A' for Active; 'I' for Inactive)
REMARK                            x       y       z     vdW  Elec       q    Type
REMARK                         _______ _______ _______ _____ _____    ______ ____
ROOT
ATOM      1  C   FMT A 204     -20.845  17.868  97.301  0.00  0.00    +0.000 C 
ATOM      2  O1  FMT A 204     -21.453  16.810  97.186  0.00  0.00    +0.000 OA
ATOM      3  O2  FMT A 204     -19.664  18.007  96.998  0.00  0.00    +0.000 OA
ENDROOT
TORSDOF 0
