REMARK  Name = /Users/chinazoemeh/HopeMScP/data/ligands/BRD4-BD1_BRD4-BD1_3_8B98/BRD4-BD1_BRD4-BD1_3_8B98.pdb
REMARK  3 active torsions:
REMARK  status: ('A' for Active; 'I' for Inactive)
REMARK    1  A    between atoms: C1_1  and  C2_3
REMARK    2  A    between atoms: C1_5  and  C2_7
REMARK    3  A    between atoms: C1_9  and  C2_11
REMARK                            x       y       z     vdW  Elec       q    Type
REMARK                         _______ _______ _______ _____ _____    ______ ____
ROOT
ATOM      1  C1  EDO A 202     -14.270   6.070 -29.555  0.00  0.00    +0.000 C 
ATOM      2  O1  EDO A 202     -15.404   6.420 -28.784  0.00  0.00    +0.000 OA
ENDROOT
BRANCH   1   3
ATOM      3  C2  EDO A 202     -13.664   7.293 -30.228  0.00  0.00    +0.000 C 
ATOM      4  O2  EDO A 202     -14.551   7.878 -31.184  0.00  0.00    +0.000 OA
ENDBRANCH   1   3
TORSDOF 1
REMARK  Name = /Users/chinazoemeh/HopeMScP/data/ligands/BRD4-BD1_BRD4-BD1_3_8B98/BRD4-BD1_BRD4-BD1_3_8B98.pdb
REMARK  3 active torsions:
REMARK  status: ('A' for Active; 'I' for Inactive)
REMARK    1  A    between atoms: C1_1  and  C2_3
REMARK    2  A    between atoms: C1_5  and  C2_7
REMARK    3  A    between atoms: C1_9  and  C2_11
REMARK                            x       y       z     vdW  Elec       q    Type
REMARK                         _______ _______ _______ _____ _____    ______ ____
ROOT
ATOM      1  C1  EDO A 203      -9.111  -3.894 -32.437  0.00  0.00    +0.000 C 
ATOM      2  O1  EDO A 203     -10.353  -4.233 -31.878  0.00  0.00    +0.000 OA
ENDROOT
BRANCH   1   3
ATOM      3  C2  EDO A 203      -7.945  -4.634 -31.899  0.00  0.00    +0.000 C 
ATOM      4  O2  EDO A 203      -7.238  -5.407 -32.856  0.00  0.00    +0.000 OA
ENDBRANCH   1   3
TORSDOF 1
REMARK  Name = /Users/chinazoemeh/HopeMScP/data/ligands/BRD4-BD1_BRD4-BD1_3_8B98/BRD4-BD1_BRD4-BD1_3_8B98.pdb
REMARK  3 active torsions:
REMARK  status: ('A' for Active; 'I' for Inactive)
REMARK    1  A    between atoms: C1_1  and  C2_3
REMARK    2  A    between atoms: C1_5  and  C2_7
REMARK    3  A    between atoms: C1_9  and  C2_11
REMARK                            x       y       z     vdW  Elec       q    Type
REMARK                         _______ _______ _______ _____ _____    ______ ____
ROOT
ATOM      1  C1  EDO A 204      -9.844  16.298 -15.705  0.00  0.00    +0.000 C 
ATOM      2  O1  EDO A 204      -9.994  15.096 -16.417  0.00  0.00    +0.000 OA
ENDROOT
BRANCH   1   3
ATOM      3  C2  EDO A 204     -10.566  17.406 -16.355  0.00  0.00    +0.000 C 
ATOM      4  O2  EDO A 204     -11.888  17.535 -15.903  0.00  0.00    +0.000 OA
ENDBRANCH   1   3
TORSDOF 1
