REMARK  Name = /Users/chinazoemeh/HopeMScP/data/ligands/BRD4-BD1_BRD4-BD1_23_6JI3/BRD4-BD1_BRD4-BD1_23_6JI3.pdb
REMARK  2 active torsions:
REMARK  status: ('A' for Active; 'I' for Inactive)
REMARK    1  A    between atoms: C14_2  and  N07_18
REMARK    2  A    between atoms: C15_3  and  C02_9
REMARK                            x       y       z     vdW  Elec       q    Type
REMARK                         _______ _______ _______ _____ _____    ______ ____
ROOT
ATOM      1  C12 BW6 A 201      12.260  43.604   1.602  0.00  0.00    +0.000 C 
ATOM      2  C01 BW6 A 201       8.926  40.715   1.157  0.00  0.00    +0.000 A 
ATOM      3  C02 BW6 A 201       9.032  39.863   0.258  0.00  0.00    +0.000 A 
ATOM      4  C03 BW6 A 201      10.062  39.619  -0.501  0.00  0.00    +0.000 A 
ATOM      5  C04 BW6 A 201      11.384  40.476  -0.329  0.00  0.00    +0.000 A 
ATOM      6  C05 BW6 A 201      11.303  41.467   0.714  0.00  0.00    +0.000 A 
ATOM      7  C06 BW6 A 201       9.899  41.529   1.468  0.00  0.00    +0.000 A 
ATOM      8  C08 BW6 A 201      13.866  40.536  -0.306  0.00  0.00    +0.000 C 
ATOM      9  C09 BW6 A 201      13.712  41.905   0.405  0.00  0.00    +0.000 C 
ATOM     10  C13 BW6 A 201      14.015  39.431   0.728  0.00  0.00    +0.000 C 
ATOM     11  N07 BW6 A 201      12.627  40.333  -1.066  0.00  0.00    +0.000 N 
ATOM     12  N10 BW6 A 201      12.420  42.309   0.928  0.00  0.00    +0.000 N 
ATOM     13  O11 BW6 A 201      14.796  42.753   0.593  0.00  0.00    +0.000 OA
ENDROOT
BRANCH   3  14
ATOM     14  C15 BW6 A 201       7.829  38.957  -0.008  0.00  0.00    +0.000 A 
ATOM     15  C18 BW6 A 201       7.456  38.479  -1.263  0.00  0.00    +0.000 A 
ATOM     16  C19 BW6 A 201       6.297  37.667  -1.069  0.00  0.00    +0.000 A 
ATOM     17  C20 BW6 A 201       5.978  37.654   0.304  0.00  0.00    +0.000 A 
ATOM     18  N21 BW6 A 201       6.936  38.461   0.982  0.00  0.00    +0.000 NA
ENDBRANCH   3  14
BRANCH  11  19
ATOM     19  C14 BW6 A 201      12.678  40.069  -2.509  0.00  0.00    +0.000 C 
ATOM     20  C16 BW6 A 201      13.224  38.873  -3.321  0.00  0.00    +0.000 C 
ATOM     21  C17 BW6 A 201      11.799  39.318  -3.530  0.00  0.00    +0.000 C 
ENDBRANCH  11  19
TORSDOF 2
