REMARK  Name = /Users/chinazoemeh/HopeMScP/data/ligands/BRD4-BD1_BRD4-BD1_15_8EAD/BRD4-BD1_BRD4-BD1_15_8EAD.pdb
REMARK  4 active torsions:
REMARK  status: ('A' for Active; 'I' for Inactive)
REMARK    1  A    between atoms: C1_1  and  C2_3
REMARK    2  A    between atoms: C1_5  and  O1_6
REMARK    3  A    between atoms: C1_5  and  C2_7
REMARK    4  A    between atoms: C2_7  and  O2_8
REMARK                            x       y       z     vdW  Elec       q    Type
REMARK                         _______ _______ _______ _____ _____    ______ ____
ROOT
ATOM      1  C1  EDO A 201      18.770   5.107 -10.271  0.00  0.00    +0.000 C 
ATOM      2  O1  EDO A 201      18.623   4.410  -9.022  0.00  0.00    +0.000 OA
ENDROOT
BRANCH   1   3
ATOM      3  C2  EDO A 201      17.441   5.495 -10.877  0.00  0.00    +0.000 C 
ATOM      4  O2  EDO A 201      16.915   6.641 -10.203  0.00  0.00    +0.000 OA
ENDBRANCH   1   3
TORSDOF 1
REMARK  Name = /Users/chinazoemeh/HopeMScP/data/ligands/BRD4-BD1_BRD4-BD1_15_8EAD/BRD4-BD1_BRD4-BD1_15_8EAD.pdb
REMARK  4 active torsions:
REMARK  status: ('A' for Active; 'I' for Inactive)
REMARK    1  A    between atoms: C1_1  and  C2_3
REMARK    2  A    between atoms: C1_5  and  O1_6
REMARK    3  A    between atoms: C1_5  and  C2_7
REMARK    4  A    between atoms: C2_7  and  O2_8
REMARK                            x       y       z     vdW  Elec       q    Type
REMARK                         _______ _______ _______ _____ _____    ______ ____
ROOT
ATOM      1  C1  EDO A 203      24.064  -1.595   6.985  0.00  0.00    +0.000 C 
ENDROOT
BRANCH   1   2
ATOM      2  O1  EDO A 203      22.907  -2.320   7.436  0.00  0.00    +0.000 OA
ATOM      3  HO1 EDO A 203      22.363  -1.745   7.992  0.00  0.00    +0.000 HD
ENDBRANCH   1   2
BRANCH   1   4
ATOM      4  C2  EDO A 203      25.029  -2.530   6.257  0.00  0.00    +0.000 C 
BRANCH   4   5
ATOM      5  O2  EDO A 203      25.411  -3.581   7.150  0.00  0.00    +0.000 OA
ATOM      6  HO2 EDO A 203      25.938  -4.235   6.671  0.00  0.00    +0.000 HD
ENDBRANCH   4   5
ENDBRANCH   1   4
TORSDOF 3
