REMARK  Name = /Users/chinazoemeh/HopeMScP/data/ligands/BRD4-BD1_BRD4-BD1_65_5DW2/BRD4-BD1_BRD4-BD1_65_5DW2.pdb
REMARK  4 active torsions:
REMARK  status: ('A' for Active; 'I' for Inactive)
REMARK    1  A    between atoms: C1_1  and  C2_3
REMARK    2  A    between atoms: C1_5  and  C2_7
REMARK    3  A    between atoms: C1_9  and  C2_11
REMARK    4  A    between atoms: C1_13  and  C2_15
REMARK                            x       y       z     vdW  Elec       q    Type
REMARK                         _______ _______ _______ _____ _____    ______ ____
ROOT
ATOM      1  C1  EDO A 202       8.394   5.327   3.280  0.00  0.00    +0.000 C 
ATOM      2  O1  EDO A 202       7.788   6.648   3.515  0.00  0.00    +0.000 OA
ENDROOT
BRANCH   1   3
ATOM      3  C2  EDO A 202       7.928   4.354   4.265  0.00  0.00    +0.000 C 
ATOM      4  O2  EDO A 202       8.364   4.576   5.529  0.00  0.00    +0.000 OA
ENDBRANCH   1   3
TORSDOF 1
REMARK  Name = /Users/chinazoemeh/HopeMScP/data/ligands/BRD4-BD1_BRD4-BD1_65_5DW2/BRD4-BD1_BRD4-BD1_65_5DW2.pdb
REMARK  4 active torsions:
REMARK  status: ('A' for Active; 'I' for Inactive)
REMARK    1  A    between atoms: C1_1  and  C2_3
REMARK    2  A    between atoms: C1_5  and  C2_7
REMARK    3  A    between atoms: C1_9  and  C2_11
REMARK    4  A    between atoms: C1_13  and  C2_15
REMARK                            x       y       z     vdW  Elec       q    Type
REMARK                         _______ _______ _______ _____ _____    ______ ____
ROOT
ATOM      1  C1  EDO A 203      23.519   1.588  -6.710  0.00  0.00    +0.000 C 
ATOM      2  O1  EDO A 203      22.308   2.278  -7.161  0.00  0.00    +0.000 OA
ENDROOT
BRANCH   1   3
ATOM      3  C2  EDO A 203      24.509   2.509  -6.037  0.00  0.00    +0.000 C 
ATOM      4  O2  EDO A 203      24.932   3.474  -6.865  0.00  0.00    +0.000 OA
ENDBRANCH   1   3
TORSDOF 1
REMARK  Name = /Users/chinazoemeh/HopeMScP/data/ligands/BRD4-BD1_BRD4-BD1_65_5DW2/BRD4-BD1_BRD4-BD1_65_5DW2.pdb
REMARK  4 active torsions:
REMARK  status: ('A' for Active; 'I' for Inactive)
REMARK    1  A    between atoms: C1_1  and  C2_3
REMARK    2  A    between atoms: C1_5  and  C2_7
REMARK    3  A    between atoms: C1_9  and  C2_11
REMARK    4  A    between atoms: C1_13  and  C2_15
REMARK                            x       y       z     vdW  Elec       q    Type
REMARK                         _______ _______ _______ _____ _____    ______ ____
ROOT
ATOM      1  C1  EDO A 204      20.553  -3.487 -12.318  0.00  0.00    +0.000 C 
ATOM      2  O1  EDO A 204      21.175  -4.026 -13.716  0.00  0.00    +0.000 OA
ENDROOT
BRANCH   1   3
ATOM      3  C2  EDO A 204      18.986  -3.403 -12.207  0.00  0.00    +0.000 C 
ATOM      4  O2  EDO A 204      18.330  -2.185 -12.869  0.00  0.00    +0.000 OA
ENDBRANCH   1   3
TORSDOF 1
REMARK  Name = /Users/chinazoemeh/HopeMScP/data/ligands/BRD4-BD1_BRD4-BD1_65_5DW2/BRD4-BD1_BRD4-BD1_65_5DW2.pdb
REMARK  4 active torsions:
REMARK  status: ('A' for Active; 'I' for Inactive)
REMARK    1  A    between atoms: C1_1  and  C2_3
REMARK    2  A    between atoms: C1_5  and  C2_7
REMARK    3  A    between atoms: C1_9  and  C2_11
REMARK    4  A    between atoms: C1_13  and  C2_15
REMARK                            x       y       z     vdW  Elec       q    Type
REMARK                         _______ _______ _______ _____ _____    ______ ____
ROOT
ATOM      1  C1  EDO A 205       8.500   7.812 -14.186  0.00  0.00    +0.000 C 
ATOM      2  O1  EDO A 205       8.257   8.495 -12.942  0.00  0.00    +0.000 OA
ENDROOT
BRANCH   1   3
ATOM      3  C2  EDO A 205       7.600   7.844 -15.492  0.00  0.00    +0.000 C 
ATOM      4  O2  EDO A 205       7.473   9.234 -16.048  0.00  0.00    +0.000 OA
ENDBRANCH   1   3
TORSDOF 1
