REMARK  Name = /Users/chinazoemeh/HopeMScP/data/ligands/BRD4-BD1_BRD4-BD1_101_6ULV/BRD4-BD1_BRD4-BD1_101_6ULV.pdb
REMARK  0 active torsions:
REMARK  status: ('A' for Active; 'I' for Inactive)
REMARK                            x       y       z     vdW  Elec       q    Type
REMARK                         _______ _______ _______ _____ _____    ______ ____
ROOT
ATOM      1  I   IOD A 201     -74.227  32.318  13.450  0.00  0.00    +0.000 I 
ENDROOT
TORSDOF 0
REMARK  Name = /Users/chinazoemeh/HopeMScP/data/ligands/BRD4-BD1_BRD4-BD1_101_6ULV/BRD4-BD1_BRD4-BD1_101_6ULV.pdb
REMARK  0 active torsions:
REMARK  status: ('A' for Active; 'I' for Inactive)
REMARK                            x       y       z     vdW  Elec       q    Type
REMARK                         _______ _______ _______ _____ _____    ______ ____
ROOT
ATOM      1  I   IOD A 202     -64.395  22.171  16.074  0.00  0.00    +0.000 I 
ENDROOT
TORSDOF 0
REMARK  Name = /Users/chinazoemeh/HopeMScP/data/ligands/BRD4-BD1_BRD4-BD1_101_6ULV/BRD4-BD1_BRD4-BD1_101_6ULV.pdb
REMARK  0 active torsions:
REMARK  status: ('A' for Active; 'I' for Inactive)
REMARK                            x       y       z     vdW  Elec       q    Type
REMARK                         _______ _______ _______ _____ _____    ______ ____
ROOT
ATOM      1  I   IOD B 201       0.976  30.393  13.257  0.00  0.00    +0.000 I 
ENDROOT
TORSDOF 0
REMARK  Name = /Users/chinazoemeh/HopeMScP/data/ligands/BRD4-BD1_BRD4-BD1_101_6ULV/BRD4-BD1_BRD4-BD1_101_6ULV.pdb
REMARK  0 active torsions:
REMARK  status: ('A' for Active; 'I' for Inactive)
REMARK                            x       y       z     vdW  Elec       q    Type
REMARK                         _______ _______ _______ _____ _____    ______ ____
ROOT
ATOM      1  I   IOD C 201     -26.294  38.605   7.792  0.00  0.00    +0.000 I 
ENDROOT
TORSDOF 0
REMARK  Name = /Users/chinazoemeh/HopeMScP/data/ligands/BRD4-BD1_BRD4-BD1_101_6ULV/BRD4-BD1_BRD4-BD1_101_6ULV.pdb
REMARK  0 active torsions:
REMARK  status: ('A' for Active; 'I' for Inactive)
REMARK                            x       y       z     vdW  Elec       q    Type
REMARK                         _______ _______ _______ _____ _____    ______ ____
ROOT
ATOM      1  I   IOD D 201     -46.920  34.382   4.213  0.00  0.00    +0.000 I 
ENDROOT
TORSDOF 0
REMARK  Name = /Users/chinazoemeh/HopeMScP/data/ligands/BRD4-BD1_BRD4-BD1_101_6ULV/BRD4-BD1_BRD4-BD1_101_6ULV.pdb
REMARK  0 active torsions:
REMARK  status: ('A' for Active; 'I' for Inactive)
REMARK                            x       y       z     vdW  Elec       q    Type
REMARK                         _______ _______ _______ _____ _____    ______ ____
ROOT
ATOM      1  I   IOD E 101     -43.025  36.537  -4.282  0.00  0.00    +0.000 I 
ENDROOT
TORSDOF 0
REMARK  Name = /Users/chinazoemeh/HopeMScP/data/ligands/BRD4-BD1_BRD4-BD1_101_6ULV/BRD4-BD1_BRD4-BD1_101_6ULV.pdb
REMARK  0 active torsions:
REMARK  status: ('A' for Active; 'I' for Inactive)
REMARK                            x       y       z     vdW  Elec       q    Type
REMARK                         _______ _______ _______ _____ _____    ______ ____
ROOT
ATOM      1  I   IOD G 101     -29.401  45.986   2.578  0.00  0.00    +0.000 I 
ENDROOT
TORSDOF 0
