REMARK  Name = /Users/chinazoemeh/HopeMScP/data/ligands/BRD4-BD1_BRD4-BD1_55_6E4A/BRD4-BD1_BRD4-BD1_55_6E4A.pdb
REMARK  6 active torsions:
REMARK  status: ('A' for Active; 'I' for Inactive)
REMARK    1  A    between atoms: C1_1  and  C2_3
REMARK    2  A    between atoms: C2_3  and  C3_5
REMARK    3  A    between atoms: C1_7  and  C2_9
REMARK    4  A    between atoms: C2_9  and  C3_11
REMARK    5  A    between atoms: C1_13  and  C2_15
REMARK    6  A    between atoms: C2_15  and  C3_17
REMARK                            x       y       z     vdW  Elec       q    Type
REMARK                         _______ _______ _______ _____ _____    ______ ____
ROOT
ATOM      1  C2  GOL A 202      11.813  10.329  58.456  0.00  0.00    +0.000 C 
ATOM      2  O2  GOL A 202      13.170  10.537  59.008  0.00  0.00    +0.000 OA
ENDROOT
BRANCH   1   3
ATOM      3  C1  GOL A 202      11.142  11.674  58.580  0.00  0.00    +0.000 C 
ATOM      4  O1  GOL A 202      11.699  12.618  57.635  0.00  0.00    +0.000 OA
ENDBRANCH   1   3
BRANCH   1   5
ATOM      5  C3  GOL A 202      11.075   9.348  59.332  0.00  0.00    +0.000 C 
ATOM      6  O3  GOL A 202      11.689   8.038  59.093  0.00  0.00    +0.000 OA
ENDBRANCH   1   5
TORSDOF 2
REMARK  Name = /Users/chinazoemeh/HopeMScP/data/ligands/BRD4-BD1_BRD4-BD1_55_6E4A/BRD4-BD1_BRD4-BD1_55_6E4A.pdb
REMARK  6 active torsions:
REMARK  status: ('A' for Active; 'I' for Inactive)
REMARK    1  A    between atoms: C1_1  and  C2_3
REMARK    2  A    between atoms: C2_3  and  C3_5
REMARK    3  A    between atoms: C1_7  and  C2_9
REMARK    4  A    between atoms: C2_9  and  C3_11
REMARK    5  A    between atoms: C1_13  and  C2_15
REMARK    6  A    between atoms: C2_15  and  C3_17
REMARK                            x       y       z     vdW  Elec       q    Type
REMARK                         _______ _______ _______ _____ _____    ______ ____
ROOT
ATOM      1  C2  GOL B 202     -10.866  -9.450  80.985  0.00  0.00    +0.000 C 
ATOM      2  O2  GOL B 202      -9.897  -8.346  81.188  0.00  0.00    +0.000 OA
ENDROOT
BRANCH   1   3
ATOM      3  C1  GOL B 202     -11.936  -9.559  82.109  0.00  0.00    +0.000 C 
ATOM      4  O1  GOL B 202     -12.976  -8.528  82.099  0.00  0.00    +0.000 OA
ENDBRANCH   1   3
BRANCH   1   5
ATOM      5  C3  GOL B 202     -10.301 -10.902  80.993  0.00  0.00    +0.000 C 
ATOM      6  O3  GOL B 202      -8.927 -11.042  80.441  0.00  0.00    +0.000 OA
ENDBRANCH   1   5
TORSDOF 2
REMARK  Name = /Users/chinazoemeh/HopeMScP/data/ligands/BRD4-BD1_BRD4-BD1_55_6E4A/BRD4-BD1_BRD4-BD1_55_6E4A.pdb
REMARK  6 active torsions:
REMARK  status: ('A' for Active; 'I' for Inactive)
REMARK    1  A    between atoms: C1_1  and  C2_3
REMARK    2  A    between atoms: C2_3  and  C3_5
REMARK    3  A    between atoms: C1_7  and  C2_9
REMARK    4  A    between atoms: C2_9  and  C3_11
REMARK    5  A    between atoms: C1_13  and  C2_15
REMARK    6  A    between atoms: C2_15  and  C3_17
REMARK                            x       y       z     vdW  Elec       q    Type
REMARK                         _______ _______ _______ _____ _____    ______ ____
ROOT
ATOM      1  C2  GOL B 203     -19.954  17.700  81.191  0.00  0.00    +0.000 C 
ATOM      2  O2  GOL B 203     -19.474  16.377  81.418  0.00  0.00    +0.000 OA
ENDROOT
BRANCH   1   3
ATOM      3  C1  GOL B 203     -18.782  18.681  81.286  0.00  0.00    +0.000 C 
ATOM      4  O1  GOL B 203     -18.350  18.915  82.659  0.00  0.00    +0.000 OA
ENDBRANCH   1   3
BRANCH   1   5
ATOM      5  C3  GOL B 203     -21.054  18.029  82.204  0.00  0.00    +0.000 C 
ATOM      6  O3  GOL B 203     -20.686  17.982  83.608  0.00  0.00    +0.000 OA
ENDBRANCH   1   5
TORSDOF 2
