REMARK  Name = /Users/chinazoemeh/HopeMScP/data/ligands/BRD4-BD1_BRD4-BD1_95_6PS9/BRD4-BD1_BRD4-BD1_95_6PS9.pdb
REMARK  4 active torsions:
REMARK  status: ('A' for Active; 'I' for Inactive)
REMARK    1  A    between atoms: C01_1  and  N02_19
REMARK    2  A    between atoms: C05_4  and  C06_5
REMARK    3  A    between atoms: C06_5  and  C07_6
REMARK    4  A    between atoms: C07_6  and  N08_20
REMARK                            x       y       z     vdW  Elec       q    Type
REMARK                         _______ _______ _______ _____ _____    ______ ____
ROOT
ATOM      1  C09 Y17 A 201      10.957   6.568   3.573  0.00  0.00    +0.000 A 
ATOM      2  C10 Y17 A 201       9.734   6.512   2.843  0.00  0.00    +0.000 A 
ATOM      3  C11 Y17 A 201       8.707   5.726   3.342  0.00  0.00    +0.000 A 
ATOM      4  C12 Y17 A 201       8.861   4.998   4.540  0.00  0.00    +0.000 A 
ATOM      5  C13 Y17 A 201      10.057   5.065   5.258  0.00  0.00    +0.000 A 
ATOM      6  C14 Y17 A 201      11.135   5.861   4.775  0.00  0.00    +0.000 A 
ATOM      7  C15 Y17 A 201      12.502   6.146   5.216  0.00  0.00    +0.000 A 
ATOM      8  C16 Y17 A 201      13.070   7.000   4.297  0.00  0.00    +0.000 A 
ATOM      9  C17 Y17 A 201      14.468   7.506   4.426  0.00  0.00    +0.000 C 
ATOM     10  C18 Y17 A 201      14.925   7.516   5.879  0.00  0.00    +0.000 C 
ATOM     11  C20 Y17 A 201      13.247   5.698   6.372  0.00  0.00    +0.000 C 
ATOM     12  N08 Y17 A 201      12.161   7.261   3.293  0.00  0.00    +0.000 N 
ATOM     13  N19 Y17 A 201      14.472   6.327   6.656  0.00  0.00    +0.000 N 
ATOM     14  O21 Y17 A 201      12.892   4.759   7.092  0.00  0.00    +0.000 OA
ATOM     15 H191 Y17 A 201      14.760   6.325   7.499  0.00  0.00    +0.000 HD
ENDROOT
BRANCH  12  16
ATOM     16  C07 Y17 A 201      12.408   8.121   2.107  0.00  0.00    +0.000 C 
BRANCH  16  17
ATOM     17  C06 Y17 A 201      12.222   7.404   0.777  0.00  0.00    +0.000 C 
BRANCH  17  21
ATOM     18  C01 Y17 A 201      13.170   3.076  -1.720  0.00  0.00    +0.000 C 
ATOM     19  C03 Y17 A 201      14.524   4.617  -0.130  0.00  0.00    +0.000 C 
ATOM     20  C04 Y17 A 201      14.253   5.898   0.646  0.00  0.00    +0.000 C 
ATOM     21  C05 Y17 A 201      12.751   5.930   0.715  0.00  0.00    +0.000 C 
ATOM     22  C22 Y17 A 201      12.347   5.163  -0.600  0.00  0.00    +0.000 C 
ATOM     23  N02 Y17 A 201      13.412   4.238  -0.824  0.00  0.00    +0.000 N 
ATOM     24  O23 Y17 A 201      15.565   3.971  -0.152  0.00  0.00    +0.000 OA
ENDBRANCH  17  21
ENDBRANCH  16  17
ENDBRANCH  12  16
TORSDOF 3
