REMARK  Name = /Users/chinazoemeh/HopeMScP/data/ligands/BRD4-BD1_BRD4-BD1_61_6G0D/BRD4-BD1_BRD4-BD1_61_6G0D.pdb
REMARK  1 active torsions:
REMARK  status: ('A' for Active; 'I' for Inactive)
REMARK    1  A    between atoms: C1_1  and  C2_3
REMARK                            x       y       z     vdW  Elec       q    Type
REMARK                         _______ _______ _______ _____ _____    ______ ____
ROOT
ATOM      1  C1  EDO A 201     -22.746  -1.122  -6.342  0.00  0.00    +0.000 C 
ATOM      2  O1  EDO A 201     -21.682  -1.954  -6.802  0.00  0.00    +0.000 OA
ENDROOT
BRANCH   1   3
ATOM      3  C2  EDO A 201     -23.681  -1.946  -5.449  0.00  0.00    +0.000 C 
ATOM      4  O2  EDO A 201     -24.204  -3.037  -6.209  0.00  0.00    +0.000 OA
ENDBRANCH   1   3
TORSDOF 1
