REMARK  Name = /Users/chinazoemeh/HopeMScP/data/ligands/BRD4-BD1_BRD4-BD1_53_6VUF/BRD4-BD1_BRD4-BD1_53_6VUF.pdb
REMARK  9 active torsions:
REMARK  status: ('A' for Active; 'I' for Inactive)
REMARK    1  A    between atoms: C05_4  and  C06_5
REMARK    2  A    between atoms: C09_8  and  S10_20
REMARK    3  A    between atoms: C13_9  and  C14_10
REMARK    4  A    between atoms: C13_9  and  N12_16
REMARK    5  A    between atoms: N12_16  and  S10_20
REMARK    6  A    between atoms: C05_24  and  C06_25
REMARK    7  A    between atoms: C09_28  and  S10_39
REMARK    8  A    between atoms: C13_29  and  N12_35
REMARK    9  A    between atoms: N12_35  and  S10_39
REMARK                            x       y       z     vdW  Elec       q    Type
REMARK                         _______ _______ _______ _____ _____    ______ ____
ROOT
ATOM      1  C06 RLV A 201      13.865   0.821  31.187  0.00  0.00    +0.000 A 
ATOM      2  C07 RLV A 201      13.402   1.934  31.967  0.00  0.00    +0.000 A 
ATOM      3  C08 RLV A 201      14.337   2.843  32.488  0.00  0.00    +0.000 A 
ATOM      4  C09 RLV A 201      15.727   2.685  32.250  0.00  0.00    +0.000 A 
ATOM      5  C17 RLV A 201      16.132   1.582  31.472  0.00  0.00    +0.000 A 
ATOM      6  C18 RLV A 201      15.223   0.645  30.937  0.00  0.00    +0.000 A 
ENDROOT
BRANCH   1  10
ATOM      7  C01 RLV A 201      12.632  -1.650  26.986  0.00  0.00    +0.000 C 
ATOM      8  C03 RLV A 201      11.284  -0.128  28.838  0.00  0.00    +0.000 C 
ATOM      9  C04 RLV A 201      11.602   0.443  30.218  0.00  0.00    +0.000 C 
ATOM     10  C05 RLV A 201      12.915  -0.206  30.588  0.00  0.00    +0.000 C 
ATOM     11  C19 RLV A 201      13.457  -0.829  29.246  0.00  0.00    +0.000 C 
ATOM     12  N02 RLV A 201      12.355  -0.879  28.264  0.00  0.00    +0.000 N 
ATOM     13  O20 RLV A 201      10.171   0.061  28.320  0.00  0.00    +0.000 OA
ENDBRANCH   1  10
BRANCH   4  16
ATOM     14  O11 RLV A 201      18.203   3.280  32.764  0.00  0.00    +0.000 OA
ATOM     15  O16 RLV A 201      16.632   4.137  34.324  0.00  0.00    +0.000 OA
ATOM     16  S10 RLV A 201      16.917   3.865  32.935  0.00  0.00    +0.000 S 
BRANCH  16  17
ATOM     17  N12 RLV A 201      16.712   5.273  31.983  0.00  0.00    +0.000 NA
BRANCH  17  18
ATOM     18  C13 RLV A 201      17.045   5.243  30.534  0.00  0.00    +0.000 C 
BRANCH  18  19
ATOM     19  C14 RLV A 201      16.059   5.907  29.556  0.00  0.00    +0.000 C 
ATOM     20  C15 RLV A 201      16.778   6.391  28.290  0.00  0.00    +0.000 C 
ENDBRANCH  18  19
ENDBRANCH  17  18
ENDBRANCH  16  17
ENDBRANCH   4  16
TORSDOF 5
REMARK  Name = /Users/chinazoemeh/HopeMScP/data/ligands/BRD4-BD1_BRD4-BD1_53_6VUF/BRD4-BD1_BRD4-BD1_53_6VUF.pdb
REMARK  9 active torsions:
REMARK  status: ('A' for Active; 'I' for Inactive)
REMARK    1  A    between atoms: C05_4  and  C06_5
REMARK    2  A    between atoms: C09_8  and  S10_20
REMARK    3  A    between atoms: C13_9  and  C14_10
REMARK    4  A    between atoms: C13_9  and  N12_16
REMARK    5  A    between atoms: N12_16  and  S10_20
REMARK    6  A    between atoms: C05_24  and  C06_25
REMARK    7  A    between atoms: C09_28  and  S10_39
REMARK    8  A    between atoms: C13_29  and  N12_35
REMARK    9  A    between atoms: N12_35  and  S10_39
REMARK                            x       y       z     vdW  Elec       q    Type
REMARK                         _______ _______ _______ _____ _____    ______ ____
ROOT
ATOM      1  C06 RLV B 201      -1.946   0.962  -7.165  0.00  0.00    +0.000 A 
ATOM      2  C07 RLV B 201      -0.608   1.196  -6.684  0.00  0.00    +0.000 A 
ATOM      3  C08 RLV B 201       0.397   0.279  -7.030  0.00  0.00    +0.000 A 
ATOM      4  C09 RLV B 201       0.083  -0.880  -7.819  0.00  0.00    +0.000 A 
ATOM      5  C17 RLV B 201      -1.242  -1.040  -8.233  0.00  0.00    +0.000 A 
ATOM      6  C18 RLV B 201      -2.269  -0.154  -7.913  0.00  0.00    +0.000 A 
ENDROOT
BRANCH   1  10
ATOM      7  C01 RLV B 201      -3.292   2.963  -3.115  0.00  0.00    +0.000 C 
ATOM      8  C03 RLV B 201      -4.632   1.567  -5.042  0.00  0.00    +0.000 C 
ATOM      9  C04 RLV B 201      -4.325   1.159  -6.488  0.00  0.00    +0.000 C 
ATOM     10  C05 RLV B 201      -3.038   1.894  -6.791  0.00  0.00    +0.000 C 
ATOM     11  C19 RLV B 201      -2.546   2.430  -5.432  0.00  0.00    +0.000 C 
ATOM     12  N02 RLV B 201      -3.592   2.307  -4.424  0.00  0.00    +0.000 N 
ATOM     13  O20 RLV B 201      -5.710   1.280  -4.500  0.00  0.00    +0.000 OA
ENDBRANCH   1  10
BRANCH   4  16
ATOM     14  O11 RLV B 201       2.482  -1.277  -8.530  0.00  0.00    +0.000 OA
ATOM     15  O16 RLV B 201       0.988  -2.931  -9.452  0.00  0.00    +0.000 OA
ATOM     16  S10 RLV B 201       1.354  -2.127  -8.308  0.00  0.00    +0.000 S 
BRANCH  16  17
ATOM     17  N12 RLV B 201       1.567  -3.207  -6.940  0.00  0.00    +0.000 NA
BRANCH  17  18
ATOM     18  C13 RLV B 201       0.488  -3.453  -5.874  0.00  0.00    +0.000 C 
ATOM     19  C14 RLV B 201       0.137  -4.955  -5.538  0.00  0.00    +0.000 C 
ENDBRANCH  17  18
ENDBRANCH  16  17
ENDBRANCH   4  16
TORSDOF 4
