REMARK  Name = /Users/chinazoemeh/HopeMScP/data/ligands/BRD4-BD1_BRD4-BD1_88_5M39/BRD4-BD1_BRD4-BD1_88_5M39.pdb
REMARK  6 active torsions:
REMARK  status: ('A' for Active; 'I' for Inactive)
REMARK    1  A    between atoms: C13_7  and  O18_20
REMARK    2  A    between atoms: C1_10  and  C2_14
REMARK    3  A    between atoms: C9_15  and  O14_19
REMARK    4  A    between atoms: C13_27  and  O18_40
REMARK    5  A    between atoms: C1_30  and  C2_34
REMARK    6  A    between atoms: C9_35  and  O14_39
REMARK                            x       y       z     vdW  Elec       q    Type
REMARK                         _______ _______ _______ _____ _____    ______ ____
ROOT
ATOM      1  N3  7EA A 201      -9.123  -5.788  -7.304  0.00  0.00    +0.000 NA
ATOM      2  C4  7EA A 201     -10.682  -7.147  -6.145  0.00  0.00    +0.000 A 
ATOM      3  C8  7EA A 201     -11.738  -6.672  -6.889  0.00  0.00    +0.000 A 
ATOM      4  C17 7EA A 201      -8.939  -3.616  -9.455  0.00  0.00    +0.000 C 
ATOM      5  C1  7EA A 201      -9.360  -6.681  -6.390  0.00  0.00    +0.000 A 
ATOM      6  C11 7EA A 201     -11.484  -5.679  -7.863  0.00  0.00    +0.000 A 
ATOM      7  C12 7EA A 201     -10.187  -4.320  -8.982  0.00  0.00    +0.000 A 
ATOM      8  N15 7EA A 201     -12.209  -4.959  -8.717  0.00  0.00    +0.000 NA
ATOM      9  N16 7EA A 201     -11.424  -4.177  -9.382  0.00  0.00    +0.000 NA
ATOM     10  N7  7EA A 201     -10.185  -5.255  -8.030  0.00  0.00    +0.000 N 
ENDROOT
BRANCH   5  15
ATOM     11  C5  7EA A 201      -8.308  -7.777  -4.414  0.00  0.00    +0.000 A 
ATOM     12  C6  7EA A 201      -6.906  -7.162  -6.299  0.00  0.00    +0.000 A 
ATOM     13  C10 7EA A 201      -5.789  -7.680  -5.662  0.00  0.00    +0.000 A 
ATOM     14  C13 7EA A 201      -5.936  -8.253  -4.398  0.00  0.00    +0.000 A 
ATOM     15  C2  7EA A 201      -8.170  -7.216  -5.681  0.00  0.00    +0.000 A 
ATOM     16  C9  7EA A 201      -7.186  -8.297  -3.778  0.00  0.00    +0.000 A 
BRANCH  14  18
ATOM     17  C20 7EA A 201      -3.555  -8.698  -4.273  0.00  0.00    +0.000 C 
ATOM     18  O18 7EA A 201      -4.876  -8.786  -3.719  0.00  0.00    +0.000 OA
ENDBRANCH  14  18
BRANCH  16  20
ATOM     19  C19 7EA A 201      -8.563  -8.969  -1.917  0.00  0.00    +0.000 C 
ATOM     20  O14 7EA A 201      -7.280  -8.885  -2.552  0.00  0.00    +0.000 OA
ENDBRANCH  16  20
ENDBRANCH   5  15
TORSDOF 3
REMARK  Name = /Users/chinazoemeh/HopeMScP/data/ligands/BRD4-BD1_BRD4-BD1_88_5M39/BRD4-BD1_BRD4-BD1_88_5M39.pdb
REMARK  6 active torsions:
REMARK  status: ('A' for Active; 'I' for Inactive)
REMARK    1  A    between atoms: C13_7  and  O18_20
REMARK    2  A    between atoms: C1_10  and  C2_14
REMARK    3  A    between atoms: C9_15  and  O14_19
REMARK    4  A    between atoms: C13_27  and  O18_40
REMARK    5  A    between atoms: C1_30  and  C2_34
REMARK    6  A    between atoms: C9_35  and  O14_39
REMARK                            x       y       z     vdW  Elec       q    Type
REMARK                         _______ _______ _______ _____ _____    ______ ____
ROOT
ATOM      1  N3  7EA B 201       6.953  13.886 -47.614  0.00  0.00    +0.000 NA
ATOM      2  C4  7EA B 201       8.537  12.493 -48.694  0.00  0.00    +0.000 A 
ATOM      3  C8  7EA B 201       9.572  12.981 -47.940  0.00  0.00    +0.000 A 
ATOM      4  C17 7EA B 201       6.728  16.125 -45.511  0.00  0.00    +0.000 C 
ATOM      5  C1  7EA B 201       7.216  12.981 -48.500  0.00  0.00    +0.000 A 
ATOM      6  C11 7EA B 201       9.292  14.003 -46.996  0.00  0.00    +0.000 A 
ATOM      7  C12 7EA B 201       7.970  15.382 -45.938  0.00  0.00    +0.000 A 
ATOM      8  N15 7EA B 201      10.008  14.767 -46.170  0.00  0.00    +0.000 NA
ATOM      9  N16 7EA B 201       9.195  15.571 -45.553  0.00  0.00    +0.000 NA
ATOM     10  N7  7EA B 201       7.992  14.430 -46.871  0.00  0.00    +0.000 N 
ENDROOT
BRANCH   5  15
ATOM     11  C5  7EA B 201       6.190  11.835 -50.440  0.00  0.00    +0.000 A 
ATOM     12  C6  7EA B 201       4.765  12.479 -48.588  0.00  0.00    +0.000 A 
ATOM     13  C10 7EA B 201       3.654  11.927 -49.207  0.00  0.00    +0.000 A 
ATOM     14  C13 7EA B 201       3.817  11.357 -50.471  0.00  0.00    +0.000 A 
ATOM     15  C2  7EA B 201       6.030  12.439 -49.207  0.00  0.00    +0.000 A 
ATOM     16  C9  7EA B 201       5.077  11.325 -51.081  0.00  0.00    +0.000 A 
BRANCH  14  18
ATOM     17  C20 7EA B 201       1.457  10.833 -50.573  0.00  0.00    +0.000 C 
ATOM     18  O18 7EA B 201       2.771  10.787 -51.151  0.00  0.00    +0.000 OA
ENDBRANCH  14  18
BRANCH  16  20
ATOM     19  C19 7EA B 201       6.503  10.640 -52.890  0.00  0.00    +0.000 C 
ATOM     20  O14 7EA B 201       5.204  10.708 -52.282  0.00  0.00    +0.000 OA
ENDBRANCH  16  20
ENDBRANCH   5  15
TORSDOF 3
