REMARK  Name = /Users/chinazoemeh/HopeMScP/data/ligands/BRD4-BD1_BRD4-BD1_98_7W3D/BRD4-BD1_BRD4-BD1_98_7W3D.pdb
REMARK  7 active torsions:
REMARK  status: ('A' for Active; 'I' for Inactive)
REMARK    1  A    between atoms: OBB_2  and  CAZ_3
REMARK    2  A    between atoms: CAZ_3  and  CAY_4
REMARK    3  A    between atoms: CAY_4  and  NAX_6
REMARK    4  A    between atoms: CAD_11  and  NAG_12
REMARK    5  A    between atoms: NAG_12  and  SAH_13
REMARK    6  A    between atoms: SAH_13  and  NAI_16
REMARK    7  A    between atoms: NAN_20  and  CAO_21
REMARK                            x       y       z     vdW  Elec       q    Type
REMARK                         _______ _______ _______ _____ _____    ______ ____
ROOT
ATOM      1  NAX 89T A 201       8.789  -7.991  -3.124  0.00  0.00    +0.000 NA
ATOM      2  CAA 89T A 201       8.434  -7.894  -1.848  0.00  0.00    +0.000 C 
ATOM      3  NAB 89T A 201       9.147  -7.025  -1.089  0.00  0.00    +0.000 NA
ATOM      4  CAF 89T A 201       7.392  -8.641  -1.315  0.00  0.00    +0.000 C 
ATOM      5  CAE 89T A 201       7.129  -8.494   0.022  0.00  0.00    +0.000 C 
ATOM      6  CAD 89T A 201       7.909  -7.605   0.784  0.00  0.00    +0.000 C 
ATOM      7  CAC 89T A 201       8.931  -6.855   0.199  0.00  0.00    +0.000 C 
ATOM      8  NAN 89T A 201       9.611  -6.002   0.985  0.00  0.00    +0.000 NA
ENDROOT
BRANCH   8   9
ATOM      9  CAO 89T A 201      10.910  -5.697   0.830  0.00  0.00    +0.000 C 
ATOM     10  CAT 89T A 201      11.856  -6.348   0.031  0.00  0.00    +0.000 C 
ATOM     11  CAS 89T A 201      13.133  -5.925  -0.023  0.00  0.00    +0.000 C 
ATOM     12  NAW 89T A 201      14.209  -6.371  -0.713  0.00  0.00    +0.000 NA
ATOM     13  NAV 89T A 201      15.287  -5.591  -0.469  0.00  0.00    +0.000 NA
ATOM     14  NAU 89T A 201      14.862  -4.659   0.398  0.00  0.00    +0.000 NA
ATOM     15  CAR 89T A 201      13.554  -4.853   0.648  0.00  0.00    +0.000 C 
ATOM     16  CAQ 89T A 201      12.698  -4.182   1.429  0.00  0.00    +0.000 C 
ATOM     17  CAP 89T A 201      11.369  -4.598   1.559  0.00  0.00    +0.000 C 
ENDBRANCH   8   9
BRANCH   1  18
ATOM     18  CAY 89T A 201       9.835  -7.058  -3.666  0.00  0.00    +0.000 C 
ATOM     19  CBA 89T A 201      11.238  -7.668  -3.620  0.00  0.00    +0.000 C 
BRANCH  18  20
ATOM     20  CAZ 89T A 201       9.617  -6.678  -5.121  0.00  0.00    +0.000 C 
BRANCH  20  22
ATOM     21  CBC 89T A 201       8.870  -4.637  -5.765  0.00  0.00    +0.000 C 
ATOM     22  OBB 89T A 201       8.444  -5.914  -5.334  0.00  0.00    +0.000 OA
ENDBRANCH  20  22
ENDBRANCH  18  20
ENDBRANCH   1  18
BRANCH   6  23
ATOM     23  NAG 89T A 201       7.691  -7.359   2.057  0.00  0.00    +0.000 NA
BRANCH  23  24
ATOM     24  SAH 89T A 201       8.000  -8.440   3.307  0.00  0.00    +0.000 S 
ATOM     25  OAJ 89T A 201       7.555  -7.670   4.527  0.00  0.00    +0.000 OA
ATOM     26  OAK 89T A 201       9.502  -8.795   3.272  0.00  0.00    +0.000 OA
BRANCH  24  27
ATOM     27  NAI 89T A 201       6.856  -9.739   3.186  0.00  0.00    +0.000 NA
ATOM     28  CAL 89T A 201       6.154 -10.070   4.463  0.00  0.00    +0.000 C 
ATOM     29  CAM 89T A 201       7.393 -10.839   2.379  0.00  0.00    +0.000 C 
ENDBRANCH  24  27
ENDBRANCH  23  24
ENDBRANCH   6  23
TORSDOF 7
