REMARK  Name = /Users/chinazoemeh/HopeMScP/data/ligands/BRD4-BD1_BRD4-BD1_97_9FXP/BRD4-BD1_BRD4-BD1_97_9FXP.pdb
REMARK  1 active torsions:
REMARK  status: ('A' for Active; 'I' for Inactive)
REMARK    1  A    between atoms: OAG_2  and  CAJ_3
REMARK                            x       y       z     vdW  Elec       q    Type
REMARK                         _______ _______ _______ _____ _____    ______ ____
ROOT
ATOM      1  CAJ 5WX A 201      29.504  15.619  -0.873  0.00  0.00    +0.000 A 
ATOM      2  CAL 5WX A 201      30.614  16.293  -0.334  0.00  0.00    +0.000 A 
ATOM      3  CAI 5WX A 201      30.860  17.284   0.712  0.00  0.00    +0.000 A 
ATOM      4  NAB 5WX A 201      29.937  17.842   1.515  0.00  0.00    +0.000 NA
ATOM      5  NAF 5WX A 201      32.186  17.569   0.750  0.00  0.00    +0.000 NA
ATOM      6  OAH 5WX A 201      32.830  16.786  -0.252  0.00  0.00    +0.000 OA
ATOM      7  CAK 5WX A 201      31.874  16.046  -0.873  0.00  0.00    +0.000 A 
ATOM      8  CAE 5WX A 201      32.049  15.152  -1.919  0.00  0.00    +0.000 A 
ATOM      9  CAC 5WX A 201      30.944  14.489  -2.437  0.00  0.00    +0.000 A 
ATOM     10  CAD 5WX A 201      29.675  14.717  -1.921  0.00  0.00    +0.000 A 
ENDROOT
BRANCH   1  12
ATOM     11  CAA 5WX A 201      27.118  15.343  -0.858  0.00  0.00    +0.000 C 
ATOM     12  OAG 5WX A 201      28.297  15.931  -0.305  0.00  0.00    +0.000 OA
ENDBRANCH   1  12
TORSDOF 1
