REMARK  Name = /Users/chinazoemeh/HopeMScP/data/ligands/BRD4-BD1_BRD4-BD1_43_7LA9/BRD4-BD1_BRD4-BD1_43_7LA9.pdb
REMARK  14 active torsions:
REMARK  status: ('A' for Active; 'I' for Inactive)
REMARK    1  A    between atoms: C1_1  and  C2_3
REMARK    2  A    between atoms: C1_5  and  C2_7
REMARK    3  A    between atoms: C1_9  and  C2_11
REMARK    4  A    between atoms: C1_13  and  C2_15
REMARK    5  A    between atoms: C1_17  and  C2_19
REMARK    6  A    between atoms: C1_21  and  C2_23
REMARK    7  A    between atoms: C1_25  and  C2_27
REMARK    8  A    between atoms: C1_29  and  C2_31
REMARK    9  A    between atoms: C1_33  and  C2_35
REMARK   10  A    between atoms: C1_37  and  C2_39
REMARK   11  A    between atoms: C1_41  and  C2_43
REMARK   12  A    between atoms: C1_45  and  C2_47
REMARK   13  A    between atoms: C1_49  and  C2_51
REMARK   14  A    between atoms: C1_53  and  C2_55
REMARK                            x       y       z     vdW  Elec       q    Type
REMARK                         _______ _______ _______ _____ _____    ______ ____
ROOT
ATOM      1  C1  EDO A 202     -12.843  50.429 -20.091  0.00  0.00    +0.000 C 
ATOM      2  O1  EDO A 202     -13.201  49.481 -19.078  0.00  0.00    +0.000 OA
ENDROOT
BRANCH   1   3
ATOM      3  C2  EDO A 202     -11.344  50.592 -20.025  0.00  0.00    +0.000 C 
ATOM      4  O2  EDO A 202     -10.923  50.967 -21.332  0.00  0.00    +0.000 OA
ENDBRANCH   1   3
TORSDOF 1
REMARK  Name = /Users/chinazoemeh/HopeMScP/data/ligands/BRD4-BD1_BRD4-BD1_43_7LA9/BRD4-BD1_BRD4-BD1_43_7LA9.pdb
REMARK  14 active torsions:
REMARK  status: ('A' for Active; 'I' for Inactive)
REMARK    1  A    between atoms: C1_1  and  C2_3
REMARK    2  A    between atoms: C1_5  and  C2_7
REMARK    3  A    between atoms: C1_9  and  C2_11
REMARK    4  A    between atoms: C1_13  and  C2_15
REMARK    5  A    between atoms: C1_17  and  C2_19
REMARK    6  A    between atoms: C1_21  and  C2_23
REMARK    7  A    between atoms: C1_25  and  C2_27
REMARK    8  A    between atoms: C1_29  and  C2_31
REMARK    9  A    between atoms: C1_33  and  C2_35
REMARK   10  A    between atoms: C1_37  and  C2_39
REMARK   11  A    between atoms: C1_41  and  C2_43
REMARK   12  A    between atoms: C1_45  and  C2_47
REMARK   13  A    between atoms: C1_49  and  C2_51
REMARK   14  A    between atoms: C1_53  and  C2_55
REMARK                            x       y       z     vdW  Elec       q    Type
REMARK                         _______ _______ _______ _____ _____    ______ ____
ROOT
ATOM      1  C1  EDO A 203     -14.988  35.661  -3.781  0.00  0.00    +0.000 C 
ATOM      2  O1  EDO A 203     -14.277  35.627  -5.032  0.00  0.00    +0.000 OA
ENDROOT
BRANCH   1   3
ATOM      3  C2  EDO A 203     -14.511  34.467  -2.963  0.00  0.00    +0.000 C 
ATOM      4  O2  EDO A 203     -14.259  34.799  -1.577  0.00  0.00    +0.000 OA
ENDBRANCH   1   3
TORSDOF 1
REMARK  Name = /Users/chinazoemeh/HopeMScP/data/ligands/BRD4-BD1_BRD4-BD1_43_7LA9/BRD4-BD1_BRD4-BD1_43_7LA9.pdb
REMARK  14 active torsions:
REMARK  status: ('A' for Active; 'I' for Inactive)
REMARK    1  A    between atoms: C1_1  and  C2_3
REMARK    2  A    between atoms: C1_5  and  C2_7
REMARK    3  A    between atoms: C1_9  and  C2_11
REMARK    4  A    between atoms: C1_13  and  C2_15
REMARK    5  A    between atoms: C1_17  and  C2_19
REMARK    6  A    between atoms: C1_21  and  C2_23
REMARK    7  A    between atoms: C1_25  and  C2_27
REMARK    8  A    between atoms: C1_29  and  C2_31
REMARK    9  A    between atoms: C1_33  and  C2_35
REMARK   10  A    between atoms: C1_37  and  C2_39
REMARK   11  A    between atoms: C1_41  and  C2_43
REMARK   12  A    between atoms: C1_45  and  C2_47
REMARK   13  A    between atoms: C1_49  and  C2_51
REMARK   14  A    between atoms: C1_53  and  C2_55
REMARK                            x       y       z     vdW  Elec       q    Type
REMARK                         _______ _______ _______ _____ _____    ______ ____
ROOT
ATOM      1  C1  EDO A 204      -7.227  44.043   2.418  0.00  0.00    +0.000 C 
ATOM      2  O1  EDO A 204      -8.240  45.059   2.516  0.00  0.00    +0.000 OA
ENDROOT
BRANCH   1   3
ATOM      3  C2  EDO A 204      -5.805  44.582   2.241  0.00  0.00    +0.000 C 
ATOM      4  O2  EDO A 204      -5.586  45.825   2.925  0.00  0.00    +0.000 OA
ENDBRANCH   1   3
TORSDOF 1
REMARK  Name = /Users/chinazoemeh/HopeMScP/data/ligands/BRD4-BD1_BRD4-BD1_43_7LA9/BRD4-BD1_BRD4-BD1_43_7LA9.pdb
REMARK  14 active torsions:
REMARK  status: ('A' for Active; 'I' for Inactive)
REMARK    1  A    between atoms: C1_1  and  C2_3
REMARK    2  A    between atoms: C1_5  and  C2_7
REMARK    3  A    between atoms: C1_9  and  C2_11
REMARK    4  A    between atoms: C1_13  and  C2_15
REMARK    5  A    between atoms: C1_17  and  C2_19
REMARK    6  A    between atoms: C1_21  and  C2_23
REMARK    7  A    between atoms: C1_25  and  C2_27
REMARK    8  A    between atoms: C1_29  and  C2_31
REMARK    9  A    between atoms: C1_33  and  C2_35
REMARK   10  A    between atoms: C1_37  and  C2_39
REMARK   11  A    between atoms: C1_41  and  C2_43
REMARK   12  A    between atoms: C1_45  and  C2_47
REMARK   13  A    between atoms: C1_49  and  C2_51
REMARK   14  A    between atoms: C1_53  and  C2_55
REMARK                            x       y       z     vdW  Elec       q    Type
REMARK                         _______ _______ _______ _____ _____    ______ ____
ROOT
ATOM      1  C1  EDO A 205      -6.093  21.521 -11.703  0.00  0.00    +0.000 C 
ATOM      2  O1  EDO A 205      -5.573  20.181 -11.651  0.00  0.00    +0.000 OA
ENDROOT
BRANCH   1   3
ATOM      3  C2  EDO A 205      -7.375  21.600 -10.883  0.00  0.00    +0.000 C 
ATOM      4  O2  EDO A 205      -8.453  21.043 -11.667  0.00  0.00    +0.000 OA
ENDBRANCH   1   3
TORSDOF 1
REMARK  Name = /Users/chinazoemeh/HopeMScP/data/ligands/BRD4-BD1_BRD4-BD1_43_7LA9/BRD4-BD1_BRD4-BD1_43_7LA9.pdb
REMARK  14 active torsions:
REMARK  status: ('A' for Active; 'I' for Inactive)
REMARK    1  A    between atoms: C1_1  and  C2_3
REMARK    2  A    between atoms: C1_5  and  C2_7
REMARK    3  A    between atoms: C1_9  and  C2_11
REMARK    4  A    between atoms: C1_13  and  C2_15
REMARK    5  A    between atoms: C1_17  and  C2_19
REMARK    6  A    between atoms: C1_21  and  C2_23
REMARK    7  A    between atoms: C1_25  and  C2_27
REMARK    8  A    between atoms: C1_29  and  C2_31
REMARK    9  A    between atoms: C1_33  and  C2_35
REMARK   10  A    between atoms: C1_37  and  C2_39
REMARK   11  A    between atoms: C1_41  and  C2_43
REMARK   12  A    between atoms: C1_45  and  C2_47
REMARK   13  A    between atoms: C1_49  and  C2_51
REMARK   14  A    between atoms: C1_53  and  C2_55
REMARK                            x       y       z     vdW  Elec       q    Type
REMARK                         _______ _______ _______ _____ _____    ______ ____
ROOT
ATOM      1  C1  EDO A 206       2.876  41.478  -1.514  0.00  0.00    +0.000 C 
ATOM      2  O1  EDO A 206       3.416  42.786  -1.192  0.00  0.00    +0.000 OA
ENDROOT
BRANCH   1   3
ATOM      3  C2  EDO A 206       1.372  41.420  -1.198  0.00  0.00    +0.000 C 
ATOM      4  O2  EDO A 206       1.011  42.227  -0.044  0.00  0.00    +0.000 OA
ENDBRANCH   1   3
TORSDOF 1
REMARK  Name = /Users/chinazoemeh/HopeMScP/data/ligands/BRD4-BD1_BRD4-BD1_43_7LA9/BRD4-BD1_BRD4-BD1_43_7LA9.pdb
REMARK  14 active torsions:
REMARK  status: ('A' for Active; 'I' for Inactive)
REMARK    1  A    between atoms: C1_1  and  C2_3
REMARK    2  A    between atoms: C1_5  and  C2_7
REMARK    3  A    between atoms: C1_9  and  C2_11
REMARK    4  A    between atoms: C1_13  and  C2_15
REMARK    5  A    between atoms: C1_17  and  C2_19
REMARK    6  A    between atoms: C1_21  and  C2_23
REMARK    7  A    between atoms: C1_25  and  C2_27
REMARK    8  A    between atoms: C1_29  and  C2_31
REMARK    9  A    between atoms: C1_33  and  C2_35
REMARK   10  A    between atoms: C1_37  and  C2_39
REMARK   11  A    between atoms: C1_41  and  C2_43
REMARK   12  A    between atoms: C1_45  and  C2_47
REMARK   13  A    between atoms: C1_49  and  C2_51
REMARK   14  A    between atoms: C1_53  and  C2_55
REMARK                            x       y       z     vdW  Elec       q    Type
REMARK                         _______ _______ _______ _____ _____    ______ ____
ROOT
ATOM      1  C1  EDO B 202     -19.487  60.956  -6.476  0.00  0.00    +0.000 C 
ATOM      2  O1  EDO B 202     -19.074  60.022  -7.502  0.00  0.00    +0.000 OA
ENDROOT
BRANCH   1   3
ATOM      3  C2  EDO B 202     -20.921  61.431  -6.684  0.00  0.00    +0.000 C 
ATOM      4  O2  EDO B 202     -21.122  62.730  -6.101  0.00  0.00    +0.000 OA
ENDBRANCH   1   3
TORSDOF 1
REMARK  Name = /Users/chinazoemeh/HopeMScP/data/ligands/BRD4-BD1_BRD4-BD1_43_7LA9/BRD4-BD1_BRD4-BD1_43_7LA9.pdb
REMARK  14 active torsions:
REMARK  status: ('A' for Active; 'I' for Inactive)
REMARK    1  A    between atoms: C1_1  and  C2_3
REMARK    2  A    between atoms: C1_5  and  C2_7
REMARK    3  A    between atoms: C1_9  and  C2_11
REMARK    4  A    between atoms: C1_13  and  C2_15
REMARK    5  A    between atoms: C1_17  and  C2_19
REMARK    6  A    between atoms: C1_21  and  C2_23
REMARK    7  A    between atoms: C1_25  and  C2_27
REMARK    8  A    between atoms: C1_29  and  C2_31
REMARK    9  A    between atoms: C1_33  and  C2_35
REMARK   10  A    between atoms: C1_37  and  C2_39
REMARK   11  A    between atoms: C1_41  and  C2_43
REMARK   12  A    between atoms: C1_45  and  C2_47
REMARK   13  A    between atoms: C1_49  and  C2_51
REMARK   14  A    between atoms: C1_53  and  C2_55
REMARK                            x       y       z     vdW  Elec       q    Type
REMARK                         _______ _______ _______ _____ _____    ______ ____
ROOT
ATOM      1  C1  EDO C 202       4.486   2.400  -5.294  0.00  0.00    +0.000 C 
ATOM      2  O1  EDO C 202       5.722   1.944  -5.884  0.00  0.00    +0.000 OA
ENDROOT
BRANCH   1   3
ATOM      3  C2  EDO C 202       4.067   1.346  -4.275  0.00  0.00    +0.000 C 
ATOM      4  O2  EDO C 202       3.134   1.936  -3.352  0.00  0.00    +0.000 OA
ENDBRANCH   1   3
TORSDOF 1
REMARK  Name = /Users/chinazoemeh/HopeMScP/data/ligands/BRD4-BD1_BRD4-BD1_43_7LA9/BRD4-BD1_BRD4-BD1_43_7LA9.pdb
REMARK  14 active torsions:
REMARK  status: ('A' for Active; 'I' for Inactive)
REMARK    1  A    between atoms: C1_1  and  C2_3
REMARK    2  A    between atoms: C1_5  and  C2_7
REMARK    3  A    between atoms: C1_9  and  C2_11
REMARK    4  A    between atoms: C1_13  and  C2_15
REMARK    5  A    between atoms: C1_17  and  C2_19
REMARK    6  A    between atoms: C1_21  and  C2_23
REMARK    7  A    between atoms: C1_25  and  C2_27
REMARK    8  A    between atoms: C1_29  and  C2_31
REMARK    9  A    between atoms: C1_33  and  C2_35
REMARK   10  A    between atoms: C1_37  and  C2_39
REMARK   11  A    between atoms: C1_41  and  C2_43
REMARK   12  A    between atoms: C1_45  and  C2_47
REMARK   13  A    between atoms: C1_49  and  C2_51
REMARK   14  A    between atoms: C1_53  and  C2_55
REMARK                            x       y       z     vdW  Elec       q    Type
REMARK                         _______ _______ _______ _____ _____    ______ ____
ROOT
ATOM      1  C1  EDO C 203      29.049  24.189  -8.902  0.00  0.00    +0.000 C 
ATOM      2  O1  EDO C 203      30.179  23.588  -9.574  0.00  0.00    +0.000 OA
ENDROOT
BRANCH   1   3
ATOM      3  C2  EDO C 203      28.049  23.126  -8.422  0.00  0.00    +0.000 C 
ATOM      4  O2  EDO C 203      26.681  23.598  -8.514  0.00  0.00    +0.000 OA
ENDBRANCH   1   3
TORSDOF 1
REMARK  Name = /Users/chinazoemeh/HopeMScP/data/ligands/BRD4-BD1_BRD4-BD1_43_7LA9/BRD4-BD1_BRD4-BD1_43_7LA9.pdb
REMARK  14 active torsions:
REMARK  status: ('A' for Active; 'I' for Inactive)
REMARK    1  A    between atoms: C1_1  and  C2_3
REMARK    2  A    between atoms: C1_5  and  C2_7
REMARK    3  A    between atoms: C1_9  and  C2_11
REMARK    4  A    between atoms: C1_13  and  C2_15
REMARK    5  A    between atoms: C1_17  and  C2_19
REMARK    6  A    between atoms: C1_21  and  C2_23
REMARK    7  A    between atoms: C1_25  and  C2_27
REMARK    8  A    between atoms: C1_29  and  C2_31
REMARK    9  A    between atoms: C1_33  and  C2_35
REMARK   10  A    between atoms: C1_37  and  C2_39
REMARK   11  A    between atoms: C1_41  and  C2_43
REMARK   12  A    between atoms: C1_45  and  C2_47
REMARK   13  A    between atoms: C1_49  and  C2_51
REMARK   14  A    between atoms: C1_53  and  C2_55
REMARK                            x       y       z     vdW  Elec       q    Type
REMARK                         _______ _______ _______ _____ _____    ______ ____
ROOT
ATOM      1  C1  EDO C 204       8.386  22.224 -28.620  0.00  0.00    +0.000 C 
ATOM      2  O1  EDO C 204       8.120  20.824 -28.480  0.00  0.00    +0.000 OA
ENDROOT
BRANCH   1   3
ATOM      3  C2  EDO C 204       9.866  22.507 -28.353  0.00  0.00    +0.000 C 
ATOM      4  O2  EDO C 204      10.254  23.793 -28.906  0.00  0.00    +0.000 OA
ENDBRANCH   1   3
TORSDOF 1
REMARK  Name = /Users/chinazoemeh/HopeMScP/data/ligands/BRD4-BD1_BRD4-BD1_43_7LA9/BRD4-BD1_BRD4-BD1_43_7LA9.pdb
REMARK  14 active torsions:
REMARK  status: ('A' for Active; 'I' for Inactive)
REMARK    1  A    between atoms: C1_1  and  C2_3
REMARK    2  A    between atoms: C1_5  and  C2_7
REMARK    3  A    between atoms: C1_9  and  C2_11
REMARK    4  A    between atoms: C1_13  and  C2_15
REMARK    5  A    between atoms: C1_17  and  C2_19
REMARK    6  A    between atoms: C1_21  and  C2_23
REMARK    7  A    between atoms: C1_25  and  C2_27
REMARK    8  A    between atoms: C1_29  and  C2_31
REMARK    9  A    between atoms: C1_33  and  C2_35
REMARK   10  A    between atoms: C1_37  and  C2_39
REMARK   11  A    between atoms: C1_41  and  C2_43
REMARK   12  A    between atoms: C1_45  and  C2_47
REMARK   13  A    between atoms: C1_49  and  C2_51
REMARK   14  A    between atoms: C1_53  and  C2_55
REMARK                            x       y       z     vdW  Elec       q    Type
REMARK                         _______ _______ _______ _____ _____    ______ ____
ROOT
ATOM      1  C1  EDO D 202      -7.639  26.048  15.394  0.00  0.00    +0.000 C 
ATOM      2  O1  EDO D 202      -6.281  26.209  14.973  0.00  0.00    +0.000 OA
ENDROOT
BRANCH   1   3
ATOM      3  C2  EDO D 202      -7.767  26.426  16.859  0.00  0.00    +0.000 C 
ATOM      4  O2  EDO D 202      -8.696  27.490  16.883  0.00  0.00    +0.000 OA
ENDBRANCH   1   3
TORSDOF 1
REMARK  Name = /Users/chinazoemeh/HopeMScP/data/ligands/BRD4-BD1_BRD4-BD1_43_7LA9/BRD4-BD1_BRD4-BD1_43_7LA9.pdb
REMARK  14 active torsions:
REMARK  status: ('A' for Active; 'I' for Inactive)
REMARK    1  A    between atoms: C1_1  and  C2_3
REMARK    2  A    between atoms: C1_5  and  C2_7
REMARK    3  A    between atoms: C1_9  and  C2_11
REMARK    4  A    between atoms: C1_13  and  C2_15
REMARK    5  A    between atoms: C1_17  and  C2_19
REMARK    6  A    between atoms: C1_21  and  C2_23
REMARK    7  A    between atoms: C1_25  and  C2_27
REMARK    8  A    between atoms: C1_29  and  C2_31
REMARK    9  A    between atoms: C1_33  and  C2_35
REMARK   10  A    between atoms: C1_37  and  C2_39
REMARK   11  A    between atoms: C1_41  and  C2_43
REMARK   12  A    between atoms: C1_45  and  C2_47
REMARK   13  A    between atoms: C1_49  and  C2_51
REMARK   14  A    between atoms: C1_53  and  C2_55
REMARK                            x       y       z     vdW  Elec       q    Type
REMARK                         _______ _______ _______ _____ _____    ______ ____
ROOT
ATOM      1  C1  EDO D 203       1.222   4.990  11.830  0.00  0.00    +0.000 C 
ATOM      2  O1  EDO D 203       2.414   4.944  10.995  0.00  0.00    +0.000 OA
ENDROOT
BRANCH   1   3
ATOM      3  C2  EDO D 203       0.779   6.461  11.988  0.00  0.00    +0.000 C 
ATOM      4  O2  EDO D 203       1.841   7.309  12.526  0.00  0.00    +0.000 OA
ENDBRANCH   1   3
TORSDOF 1
REMARK  Name = /Users/chinazoemeh/HopeMScP/data/ligands/BRD4-BD1_BRD4-BD1_43_7LA9/BRD4-BD1_BRD4-BD1_43_7LA9.pdb
REMARK  14 active torsions:
REMARK  status: ('A' for Active; 'I' for Inactive)
REMARK    1  A    between atoms: C1_1  and  C2_3
REMARK    2  A    between atoms: C1_5  and  C2_7
REMARK    3  A    between atoms: C1_9  and  C2_11
REMARK    4  A    between atoms: C1_13  and  C2_15
REMARK    5  A    between atoms: C1_17  and  C2_19
REMARK    6  A    between atoms: C1_21  and  C2_23
REMARK    7  A    between atoms: C1_25  and  C2_27
REMARK    8  A    between atoms: C1_29  and  C2_31
REMARK    9  A    between atoms: C1_33  and  C2_35
REMARK   10  A    between atoms: C1_37  and  C2_39
REMARK   11  A    between atoms: C1_41  and  C2_43
REMARK   12  A    between atoms: C1_45  and  C2_47
REMARK   13  A    between atoms: C1_49  and  C2_51
REMARK   14  A    between atoms: C1_53  and  C2_55
REMARK                            x       y       z     vdW  Elec       q    Type
REMARK                         _______ _______ _______ _____ _____    ______ ____
ROOT
ATOM      1  C1  EDO E 201      25.611  24.191 -29.150  0.00  0.00    +0.000 C 
ATOM      2  O1  EDO E 201      24.778  23.200 -28.495  0.00  0.00    +0.000 OA
ENDROOT
BRANCH   1   3
ATOM      3  C2  EDO E 201      26.943  24.435 -28.431  0.00  0.00    +0.000 C 
ATOM      4  O2  EDO E 201      27.471  25.704 -28.877  0.00  0.00    +0.000 OA
ENDBRANCH   1   3
TORSDOF 1
REMARK  Name = /Users/chinazoemeh/HopeMScP/data/ligands/BRD4-BD1_BRD4-BD1_43_7LA9/BRD4-BD1_BRD4-BD1_43_7LA9.pdb
REMARK  14 active torsions:
REMARK  status: ('A' for Active; 'I' for Inactive)
REMARK    1  A    between atoms: C1_1  and  C2_3
REMARK    2  A    between atoms: C1_5  and  C2_7
REMARK    3  A    between atoms: C1_9  and  C2_11
REMARK    4  A    between atoms: C1_13  and  C2_15
REMARK    5  A    between atoms: C1_17  and  C2_19
REMARK    6  A    between atoms: C1_21  and  C2_23
REMARK    7  A    between atoms: C1_25  and  C2_27
REMARK    8  A    between atoms: C1_29  and  C2_31
REMARK    9  A    between atoms: C1_33  and  C2_35
REMARK   10  A    between atoms: C1_37  and  C2_39
REMARK   11  A    between atoms: C1_41  and  C2_43
REMARK   12  A    between atoms: C1_45  and  C2_47
REMARK   13  A    between atoms: C1_49  and  C2_51
REMARK   14  A    between atoms: C1_53  and  C2_55
REMARK                            x       y       z     vdW  Elec       q    Type
REMARK                         _______ _______ _______ _____ _____    ______ ____
ROOT
ATOM      1  C1  EDO F 201     -37.034  71.828 -19.429  0.00  0.00    +0.000 C 
ATOM      2  O1  EDO F 201     -36.155  70.909 -18.725  0.00  0.00    +0.000 OA
ENDROOT
BRANCH   1   3
ATOM      3  C2  EDO F 201     -37.334  71.330 -20.855  0.00  0.00    +0.000 C 
ATOM      4  O2  EDO F 201     -36.670  70.056 -21.045  0.00  0.00    +0.000 OA
ENDBRANCH   1   3
TORSDOF 1
REMARK  Name = /Users/chinazoemeh/HopeMScP/data/ligands/BRD4-BD1_BRD4-BD1_43_7LA9/BRD4-BD1_BRD4-BD1_43_7LA9.pdb
REMARK  14 active torsions:
REMARK  status: ('A' for Active; 'I' for Inactive)
REMARK    1  A    between atoms: C1_1  and  C2_3
REMARK    2  A    between atoms: C1_5  and  C2_7
REMARK    3  A    between atoms: C1_9  and  C2_11
REMARK    4  A    between atoms: C1_13  and  C2_15
REMARK    5  A    between atoms: C1_17  and  C2_19
REMARK    6  A    between atoms: C1_21  and  C2_23
REMARK    7  A    between atoms: C1_25  and  C2_27
REMARK    8  A    between atoms: C1_29  and  C2_31
REMARK    9  A    between atoms: C1_33  and  C2_35
REMARK   10  A    between atoms: C1_37  and  C2_39
REMARK   11  A    between atoms: C1_41  and  C2_43
REMARK   12  A    between atoms: C1_45  and  C2_47
REMARK   13  A    between atoms: C1_49  and  C2_51
REMARK   14  A    between atoms: C1_53  and  C2_55
REMARK                            x       y       z     vdW  Elec       q    Type
REMARK                         _______ _______ _______ _____ _____    ______ ____
ROOT
ATOM      1  C1  EDO F 202     -35.033  55.515 -11.347  0.00  0.00    +0.000 C 
ATOM      2  O1  EDO F 202     -36.214  54.792 -11.730  0.00  0.00    +0.000 OA
ENDROOT
BRANCH   1   3
ATOM      3  C2  EDO F 202     -33.810  54.881 -12.016  0.00  0.00    +0.000 C 
ATOM      4  O2  EDO F 202     -32.656  55.762 -11.958  0.00  0.00    +0.000 OA
ENDBRANCH   1   3
TORSDOF 1
