REMARK  Name = /Users/chinazoemeh/HopeMScP/data/ligands/BRD4-BD1_BRD4-BD1_45_7L9M/BRD4-BD1_BRD4-BD1_45_7L9M.pdb
REMARK  4 active torsions:
REMARK  status: ('A' for Active; 'I' for Inactive)
REMARK    1  A    between atoms: C1_1  and  C2_3
REMARK    2  A    between atoms: C1_5  and  C2_7
REMARK    3  A    between atoms: C1_9  and  C2_11
REMARK    4  A    between atoms: C1_13  and  C2_15
REMARK                            x       y       z     vdW  Elec       q    Type
REMARK                         _______ _______ _______ _____ _____    ______ ____
ROOT
ATOM      1  C1  EDO A 201     -16.682  -1.716 -18.428  0.00  0.00    +0.000 C 
ATOM      2  O1  EDO A 201     -16.561  -2.941 -19.164  0.00  0.00    +0.000 OA
ENDROOT
BRANCH   1   3
ATOM      3  C2  EDO A 201     -15.401  -0.931 -18.615  0.00  0.00    +0.000 C 
ATOM      4  O2  EDO A 201     -14.301  -1.641 -18.023  0.00  0.00    +0.000 OA
ENDBRANCH   1   3
TORSDOF 1
REMARK  Name = /Users/chinazoemeh/HopeMScP/data/ligands/BRD4-BD1_BRD4-BD1_45_7L9M/BRD4-BD1_BRD4-BD1_45_7L9M.pdb
REMARK  4 active torsions:
REMARK  status: ('A' for Active; 'I' for Inactive)
REMARK    1  A    between atoms: C1_1  and  C2_3
REMARK    2  A    between atoms: C1_5  and  C2_7
REMARK    3  A    between atoms: C1_9  and  C2_11
REMARK    4  A    between atoms: C1_13  and  C2_15
REMARK                            x       y       z     vdW  Elec       q    Type
REMARK                         _______ _______ _______ _____ _____    ______ ____
ROOT
ATOM      1  C1  EDO A 202     -18.539   6.590   4.548  0.00  0.00    +0.000 C 
ATOM      2  O1  EDO A 202     -18.498   5.226   4.965  0.00  0.00    +0.000 OA
ENDROOT
BRANCH   1   3
ATOM      3  C2  EDO A 202     -19.979   7.034   4.384  0.00  0.00    +0.000 C 
ATOM      4  O2  EDO A 202     -20.079   8.460   4.257  0.00  0.00    +0.000 OA
ENDBRANCH   1   3
TORSDOF 1
REMARK  Name = /Users/chinazoemeh/HopeMScP/data/ligands/BRD4-BD1_BRD4-BD1_45_7L9M/BRD4-BD1_BRD4-BD1_45_7L9M.pdb
REMARK  4 active torsions:
REMARK  status: ('A' for Active; 'I' for Inactive)
REMARK    1  A    between atoms: C1_1  and  C2_3
REMARK    2  A    between atoms: C1_5  and  C2_7
REMARK    3  A    between atoms: C1_9  and  C2_11
REMARK    4  A    between atoms: C1_13  and  C2_15
REMARK                            x       y       z     vdW  Elec       q    Type
REMARK                         _______ _______ _______ _____ _____    ______ ____
ROOT
ATOM      1  C1  EDO A 203     -13.946 -13.456 -13.907  0.00  0.00    +0.000 C 
ATOM      2  O1  EDO A 203     -12.991 -13.722 -14.957  0.00  0.00    +0.000 OA
ENDROOT
BRANCH   1   3
ATOM      3  C2  EDO A 203     -13.336 -12.748 -12.675  0.00  0.00    +0.000 C 
ATOM      4  O2  EDO A 203     -12.163 -13.474 -12.200  0.00  0.00    +0.000 OA
ENDBRANCH   1   3
TORSDOF 1
REMARK  Name = /Users/chinazoemeh/HopeMScP/data/ligands/BRD4-BD1_BRD4-BD1_45_7L9M/BRD4-BD1_BRD4-BD1_45_7L9M.pdb
REMARK  4 active torsions:
REMARK  status: ('A' for Active; 'I' for Inactive)
REMARK    1  A    between atoms: C1_1  and  C2_3
REMARK    2  A    between atoms: C1_5  and  C2_7
REMARK    3  A    between atoms: C1_9  and  C2_11
REMARK    4  A    between atoms: C1_13  and  C2_15
REMARK                            x       y       z     vdW  Elec       q    Type
REMARK                         _______ _______ _______ _____ _____    ______ ____
ROOT
ATOM      1  C1  EDO B 201      -4.157   9.072  21.194  0.00  0.00    +0.000 C 
ATOM      2  O1  EDO B 201      -5.242   8.265  20.702  0.00  0.00    +0.000 OA
ENDROOT
BRANCH   1   3
ATOM      3  C2  EDO B 201      -2.844   8.288  21.120  0.00  0.00    +0.000 C 
ATOM      4  O2  EDO B 201      -3.002   7.057  21.853  0.00  0.00    +0.000 OA
ENDBRANCH   1   3
TORSDOF 1
