REMARK  Name = /Users/chinazoemeh/HopeMScP/data/ligands/BRD4-BD1_BRD4-BD1_82_5M3A/BRD4-BD1_BRD4-BD1_82_5M3A.pdb
REMARK  2 active torsions:
REMARK  status: ('A' for Active; 'I' for Inactive)
REMARK    1  A    between atoms: C1_1  and  C2_3
REMARK    2  A    between atoms: C1_5  and  C2_7
REMARK                            x       y       z     vdW  Elec       q    Type
REMARK                         _______ _______ _______ _____ _____    ______ ____
ROOT
ATOM      1  C1  EDO A 301      12.794  46.851   6.083  0.00  0.00    +0.000 C 
ATOM      2  O1  EDO A 301      12.407  47.915   6.930  0.00  0.00    +0.000 OA
ENDROOT
BRANCH   1   3
ATOM      3  C2  EDO A 301      13.661  45.850   6.875  0.00  0.00    +0.000 C 
ATOM      4  O2  EDO A 301      14.888  46.458   7.263  0.00  0.00    +0.000 OA
ENDBRANCH   1   3
TORSDOF 1
REMARK  Name = /Users/chinazoemeh/HopeMScP/data/ligands/BRD4-BD1_BRD4-BD1_82_5M3A/BRD4-BD1_BRD4-BD1_82_5M3A.pdb
REMARK  2 active torsions:
REMARK  status: ('A' for Active; 'I' for Inactive)
REMARK    1  A    between atoms: C1_1  and  C2_3
REMARK    2  A    between atoms: C1_5  and  C2_7
REMARK                            x       y       z     vdW  Elec       q    Type
REMARK                         _______ _______ _______ _____ _____    ______ ____
ROOT
ATOM      1  C1  EDO A 302      31.285  24.926   1.701  0.00  0.00    +0.000 C 
ATOM      2  O1  EDO A 302      32.087  24.222   2.632  0.00  0.00    +0.000 OA
ENDROOT
BRANCH   1   3
ATOM      3  C2  EDO A 302      32.169  25.459   0.553  0.00  0.00    +0.000 C 
ATOM      4  O2  EDO A 302      31.437  26.401  -0.215  0.00  0.00    +0.000 OA
ENDBRANCH   1   3
TORSDOF 1
