REMARK  Name = /Users/chinazoemeh/HopeMScP/data/ligands/BRD4-BD1_BRD4-BD1_85_5YOV/BRD4-BD1_BRD4-BD1_85_5YOV.pdb
REMARK  3 active torsions:
REMARK  status: ('A' for Active; 'I' for Inactive)
REMARK    1  A    between atoms: C15_2  and  C02_11
REMARK    2  A    between atoms: C17_3  and  N16_23
REMARK    3  A    between atoms: N07_16  and  C14_22
REMARK                            x       y       z     vdW  Elec       q    Type
REMARK                         _______ _______ _______ _____ _____    ______ ____
ROOT
ATOM      1  C13 8XR A 201     -19.971  -8.094  79.809  0.00  0.00    +0.000 C 
ATOM      2  C01 8XR A 201     -24.931  -6.410  80.652  0.00  0.00    +0.000 A 
ATOM      3  C02 8XR A 201     -24.893  -7.377  79.530  0.00  0.00    +0.000 A 
ATOM      4  C03 8XR A 201     -23.735  -7.690  78.705  0.00  0.00    +0.000 A 
ATOM      5  C04 8XR A 201     -22.509  -6.847  78.979  0.00  0.00    +0.000 A 
ATOM      6  C05 8XR A 201     -22.546  -5.879  80.028  0.00  0.00    +0.000 A 
ATOM      7  C06 8XR A 201     -23.758  -5.618  80.895  0.00  0.00    +0.000 A 
ATOM      8  N07 8XR A 201     -21.244  -7.085  78.200  0.00  0.00    +0.000 N 
ATOM      9  C08 8XR A 201     -20.243  -6.927  78.764  0.00  0.00    +0.000 C 
ATOM     10  C09 8XR A 201     -20.195  -5.385  79.695  0.00  0.00    +0.000 C 
ATOM     11  N10 8XR A 201     -21.319  -5.056  80.221  0.00  0.00    +0.000 N 
ATOM     12  O11 8XR A 201     -19.222  -4.806  79.800  0.00  0.00    +0.000 OA
ATOM     13  C12 8XR A 201     -21.476  -3.921  80.994  0.00  0.00    +0.000 C 
ENDROOT
BRANCH   8  16
ATOM     14  C24 8XR A 201     -22.037  -7.875  76.251  0.00  0.00    +0.000 C 
ATOM     15  C26 8XR A 201     -20.027  -8.072  75.162  0.00  0.00    +0.000 C 
ATOM     16  C14 8XR A 201     -21.333  -8.229  77.261  0.00  0.00    +0.000 C 
ATOM     17  C25 8XR A 201     -20.893  -7.099  75.394  0.00  0.00    +0.000 C 
ATOM     18  C27 8XR A 201     -19.967  -8.698  76.561  0.00  0.00    +0.000 C 
ENDBRANCH   8  16
BRANCH   3  19
ATOM     19  C15 8XR A 201     -26.067  -8.214  79.369  0.00  0.00    +0.000 C 
ATOM     20  N16 8XR A 201     -26.587  -8.535  78.111  0.00  0.00    +0.000 NA
ATOM     21  O18 8XR A 201     -26.402  -8.667  80.436  0.00  0.00    +0.000 OA
BRANCH  20  22
ATOM     22  C17 8XR A 201     -26.020  -7.954  76.958  0.00  0.00    +0.000 A 
ATOM     23  C20 8XR A 201     -24.920  -8.147  74.597  0.00  0.00    +0.000 A 
ATOM     24  C21 8XR A 201     -24.798  -6.657  74.514  0.00  0.00    +0.000 A 
ATOM     25  C22 8XR A 201     -25.298  -5.830  75.646  0.00  0.00    +0.000 A 
ATOM     26  C28 8XR A 201     -25.592 -10.303  75.901  0.00  0.00    +0.000 C 
ATOM     27  C19 8XR A 201     -25.500  -8.804  75.831  0.00  0.00    +0.000 A 
ATOM     28  C23 8XR A 201     -25.865  -6.479  76.832  0.00  0.00    +0.000 A 
ATOM     29  C29 8XR A 201     -24.230  -6.002  73.283  0.00  0.00    +0.000 C 
ENDBRANCH  20  22
ENDBRANCH   3  19
TORSDOF 3
