REMARK  Name = /Users/chinazoemeh/HopeMScP/data/ligands/BRD4-BD1_BRD4-BD1_44_7MR5/BRD4-BD1_BRD4-BD1_44_7MR5.pdb
REMARK  2 active torsions:
REMARK  status: ('A' for Active; 'I' for Inactive)
REMARK    1  A    between atoms: C1_1  and  C2_3
REMARK    2  A    between atoms: C1_5  and  C2_7
REMARK                            x       y       z     vdW  Elec       q    Type
REMARK                         _______ _______ _______ _____ _____    ______ ____
ROOT
ATOM      1  C1  EDO A 202      -2.466   6.996 -73.770  0.00  0.00    +0.000 C 
ATOM      2  O1  EDO A 202      -2.351   5.837 -74.602  0.00  0.00    +0.000 OA
ENDROOT
BRANCH   1   3
ATOM      3  C2  EDO A 202      -1.180   7.814 -73.839  0.00  0.00    +0.000 C 
ATOM      4  O2  EDO A 202      -0.077   7.046 -73.329  0.00  0.00    +0.000 OA
ENDBRANCH   1   3
TORSDOF 1
REMARK  Name = /Users/chinazoemeh/HopeMScP/data/ligands/BRD4-BD1_BRD4-BD1_44_7MR5/BRD4-BD1_BRD4-BD1_44_7MR5.pdb
REMARK  2 active torsions:
REMARK  status: ('A' for Active; 'I' for Inactive)
REMARK    1  A    between atoms: C1_1  and  C2_3
REMARK    2  A    between atoms: C1_5  and  C2_7
REMARK                            x       y       z     vdW  Elec       q    Type
REMARK                         _______ _______ _______ _____ _____    ______ ____
ROOT
ATOM      1  C1  EDO A 203      -1.435   6.561 -55.998  0.00  0.00    +0.000 C 
ATOM      2  O1  EDO A 203      -2.044   7.862 -55.972  0.00  0.00    +0.000 OA
ENDROOT
BRANCH   1   3
ATOM      3  C2  EDO A 203      -2.143   5.642 -55.005  0.00  0.00    +0.000 C 
ATOM      4  O2  EDO A 203      -2.076   6.210 -53.693  0.00  0.00    +0.000 OA
ENDBRANCH   1   3
TORSDOF 1
