REMARK  Name = /Users/chinazoemeh/HopeMScP/data/ligands/BRD4-BD1_BRD4-BD1_108_6U8M/BRD4-BD1_BRD4-BD1_108_6U8M.pdb
REMARK  12 active torsions:
REMARK  status: ('A' for Active; 'I' for Inactive)
REMARK    1  A    between atoms: NZ_4  and  CE_5
REMARK    2  A    between atoms: CE_5  and  CD_6
REMARK    3  A    between atoms: CD_6  and  CG_7
REMARK    4  A    between atoms: CG_7  and  CB_8
REMARK    5  A    between atoms: CB_8  and  CA_9
REMARK    6  A    between atoms: CA_9  and  C_11
REMARK    7  A    between atoms: NZ_16  and  CE_17
REMARK    8  A    between atoms: CE_17  and  CD_18
REMARK    9  A    between atoms: CD_18  and  CG_19
REMARK   10  A    between atoms: CG_19  and  CB_20
REMARK   11  A    between atoms: CB_20  and  CA_21
REMARK   12  A    between atoms: CA_21  and  C_23
REMARK                            x       y       z     vdW  Elec       q    Type
REMARK                         _______ _______ _______ _____ _____    ______ ____
ROOT
ATOM      1  CD  ALY C   2     -39.350  -0.087  -0.838  0.00  0.00    +0.000 C 
ENDROOT
BRANCH   1   2
ATOM      2  CE  ALY C   2     -38.640   1.200  -1.227  0.00  0.00    +0.000 C 
BRANCH   2   6
ATOM      3  OH  ALY C   2     -38.882   3.212   0.697  0.00  0.00    +0.000 OA
ATOM      4  CH  ALY C   2     -37.792   2.622   0.606  0.00  0.00    +0.000 C 
ATOM      5  CH3 ALY C   2     -36.636   2.995   1.503  0.00  0.00    +0.000 C 
ATOM      6  NZ  ALY C   2     -37.602   1.610  -0.318  0.00  0.00    +0.000 NA
ENDBRANCH   2   6
ENDBRANCH   1   2
BRANCH   1   7
ATOM      7  CG  ALY C   2     -40.252  -0.551  -1.979  0.00  0.00    +0.000 C 
BRANCH   7   8
ATOM      8  CB  ALY C   2     -40.823  -1.889  -1.607  0.00  0.00    +0.000 C 
BRANCH   8   9
ATOM      9  CA  ALY C   2     -41.852  -2.450  -2.623  0.00  0.00    +0.000 C 
ATOM     10  N   ALY C   2     -43.197  -1.929  -2.462  0.00  0.00    +0.000 NA
BRANCH   9  11
ATOM     11  C   ALY C   2     -41.948  -3.941  -2.422  0.00  0.00    +0.000 C 
ATOM     12  O   ALY C   2     -42.632  -4.421  -1.515  0.00  0.00    +0.000 OA
ENDBRANCH   9  11
ENDBRANCH   8   9
ENDBRANCH   7   8
ENDBRANCH   1   7
TORSDOF 6
REMARK  Name = /Users/chinazoemeh/HopeMScP/data/ligands/BRD4-BD1_BRD4-BD1_108_6U8M/BRD4-BD1_BRD4-BD1_108_6U8M.pdb
REMARK  12 active torsions:
REMARK  status: ('A' for Active; 'I' for Inactive)
REMARK    1  A    between atoms: NZ_4  and  CE_5
REMARK    2  A    between atoms: CE_5  and  CD_6
REMARK    3  A    between atoms: CD_6  and  CG_7
REMARK    4  A    between atoms: CG_7  and  CB_8
REMARK    5  A    between atoms: CB_8  and  CA_9
REMARK    6  A    between atoms: CA_9  and  C_11
REMARK    7  A    between atoms: NZ_16  and  CE_17
REMARK    8  A    between atoms: CE_17  and  CD_18
REMARK    9  A    between atoms: CD_18  and  CG_19
REMARK   10  A    between atoms: CG_19  and  CB_20
REMARK   11  A    between atoms: CB_20  and  CA_21
REMARK   12  A    between atoms: CA_21  and  C_23
REMARK                            x       y       z     vdW  Elec       q    Type
REMARK                         _______ _______ _______ _____ _____    ______ ____
ROOT
ATOM      1  CD  ALY C   9     -37.700 -18.797  -5.162  0.00  0.00    +0.000 C 
ENDROOT
BRANCH   1   2
ATOM      2  CE  ALY C   9     -37.717 -19.782  -6.338  0.00  0.00    +0.000 C 
BRANCH   2   6
ATOM      3  OH  ALY C   9     -39.740 -21.026  -7.719  0.00  0.00    +0.000 OA
ATOM      4  CH  ALY C   9     -39.506 -19.842  -8.024  0.00  0.00    +0.000 C 
ATOM      5  CH3 ALY C   9     -40.302 -19.127  -9.109  0.00  0.00    +0.000 C 
ATOM      6  NZ  ALY C   9     -38.504 -19.172  -7.385  0.00  0.00    +0.000 NA
ENDBRANCH   2   6
ENDBRANCH   1   2
BRANCH   1   7
ATOM      7  CG  ALY C   9     -37.132 -19.453  -3.944  0.00  0.00    +0.000 C 
BRANCH   7   8
ATOM      8  CB  ALY C   9     -37.975 -19.051  -2.771  0.00  0.00    +0.000 C 
BRANCH   8   9
ATOM      9  CA  ALY C   9     -37.306 -17.843  -2.107  0.00  0.00    +0.000 C 
ATOM     10  N   ALY C   9     -36.021 -18.127  -1.502  0.00  0.00    +0.000 NA
BRANCH   9  11
ATOM     11  C   ALY C   9     -38.293 -17.316  -1.084  0.00  0.00    +0.000 C 
ATOM     12  O   ALY C   9     -39.494 -17.605  -1.058  0.00  0.00    +0.000 OA
ENDBRANCH   9  11
ENDBRANCH   8   9
ENDBRANCH   7   8
ENDBRANCH   1   7
TORSDOF 6
