REMARK  Name = /Users/chinazoemeh/HopeMScP/data/ligands/BRD4-BD1_BRD4-BD1_4_7EHW/BRD4-BD1_BRD4-BD1_4_7EHW.pdb
REMARK  4 active torsions:
REMARK  status: ('A' for Active; 'I' for Inactive)
REMARK    1  A    between atoms: C14_5  and  C16_6
REMARK    2  A    between atoms: C17_7  and  C21_11
REMARK    3  A    between atoms: C18_8  and  C23_13
REMARK    4  A    between atoms: C7_18  and  N3_24
REMARK                            x       y       z     vdW  Elec       q    Type
REMARK                         _______ _______ _______ _____ _____    ______ ____
ROOT
ATOM      1  C10 J4O A 201      25.973  31.579  41.848  0.00  0.00    +0.000 A 
ATOM      2  C11 J4O A 201      26.978  32.383  41.321  0.00  0.00    +0.000 A 
ATOM      3  C12 J4O A 201      28.261  32.339  41.873  0.00  0.00    +0.000 A 
ATOM      4  C14 J4O A 201      24.276  30.457  42.457  0.00  0.00    +0.000 A 
ATOM      5  C7  J4O A 201      28.566  31.499  42.945  0.00  0.00    +0.000 A 
ATOM      6  C8  J4O A 201      27.591  30.682  43.499  0.00  0.00    +0.000 A 
ATOM      7  C9  J4O A 201      26.310  30.693  42.991  0.00  0.00    +0.000 A 
ATOM      8  N13 J4O A 201      25.200  30.019  43.325  0.00  0.00    +0.000 NA
ATOM      9  N15 J4O A 201      24.668  31.382  41.569  0.00  0.00    +0.000 NA
ENDROOT
BRANCH   5  14
ATOM     10  C1  J4O A 201      31.305  31.279  45.495  0.00  0.00    +0.000 C 
ATOM     11  C2  J4O A 201      29.922  31.020  44.910  0.00  0.00    +0.000 C 
ATOM     12  C4  J4O A 201      31.006  31.706  42.652  0.00  0.00    +0.000 C 
ATOM     13  C5  J4O A 201      32.273  31.870  43.486  0.00  0.00    +0.000 C 
ATOM     14  N3  J4O A 201      29.850  31.436  43.507  0.00  0.00    +0.000 N 
ATOM     15  O6  J4O A 201      32.289  30.920  44.540  0.00  0.00    +0.000 OA
ENDBRANCH   5  14
BRANCH   4  16
ATOM     16  C16 J4O A 201      22.905  29.889  42.580  0.00  0.00    +0.000 A 
ATOM     17  C17 J4O A 201      21.688  30.426  41.943  0.00  0.00    +0.000 A 
ATOM     18  C18 J4O A 201      20.686  29.454  42.450  0.00  0.00    +0.000 A 
ATOM     19  C19 J4O A 201      21.409  28.465  43.333  0.00  0.00    +0.000 A 
ATOM     20  C26 J4O A 201      20.882  27.278  44.108  0.00  0.00    +0.000 C 
ATOM     21  N20 J4O A 201      22.715  28.808  43.348  0.00  0.00    +0.000 NA
BRANCH  18  22
ATOM     22  C23 J4O A 201      19.231  29.535  42.099  0.00  0.00    +0.000 C 
ATOM     23  C24 J4O A 201      18.373  28.329  42.291  0.00  0.00    +0.000 C 
ATOM     24  O25 J4O A 201      18.752  30.576  41.668  0.00  0.00    +0.000 OA
ENDBRANCH  18  22
BRANCH  17  25
ATOM     25  C21 J4O A 201      21.533  31.607  41.017  0.00  0.00    +0.000 C 
ATOM     26  C22 J4O A 201      21.417  31.085  39.597  0.00  0.00    +0.000 C 
ENDBRANCH  17  25
ENDBRANCH   4  16
TORSDOF 4
