REMARK  Name = /Users/chinazoemeh/HopeMScP/data/ligands/BRD4-BD1_BRD4-BD1_35_7JKW/BRD4-BD1_BRD4-BD1_35_7JKW.pdb
REMARK  8 active torsions:
REMARK  status: ('A' for Active; 'I' for Inactive)
REMARK    1  A    between atoms: C1_1  and  N4_31
REMARK    2  A    between atoms: C3_3  and  C21_24
REMARK    3  A    between atoms: C9_9  and  C10_10
REMARK    4  A    between atoms: C9_9  and  C15_15
REMARK    5  A    between atoms: C9_9  and  N3_22
REMARK    6  A    between atoms: C26_29  and  S1_32
REMARK    7  A    between atoms: N4_31  and  S1_32
REMARK    8  A    between atoms: C29_37  and  N6_41
REMARK                            x       y       z     vdW  Elec       q    Type
REMARK                         _______ _______ _______ _____ _____    ______ ____
ROOT
ATOM      1  C1  VCV A 401      14.510  15.298   5.802  0.00  0.00    +0.000 A 
ATOM      2  C2  VCV A 401      13.316  14.602   5.599  0.00  0.00    +0.000 A 
ATOM      3  C3  VCV A 401      12.915  14.258   4.317  0.00  0.00    +0.000 A 
ATOM      4  C4  VCV A 401      13.724  14.539   3.213  0.00  0.00    +0.000 A 
ATOM      5  C5  VCV A 401      14.929  15.195   3.420  0.00  0.00    +0.000 A 
ATOM      6  C6  VCV A 401      15.330  15.609   4.698  0.00  0.00    +0.000 A 
ATOM      7  C7  VCV A 401      16.579  16.310   4.552  0.00  0.00    +0.000 A 
ATOM      8  C8  VCV A 401      16.867  16.301   3.216  0.00  0.00    +0.000 A 
ATOM      9  N3  VCV A 401      15.924  15.620   2.519  0.00  0.00    +0.000 N 
ENDROOT
BRANCH   3  10
ATOM     10  C21 VCV A 401      11.576  13.665   4.082  0.00  0.00    +0.000 C 
ATOM     11  C22 VCV A 401      10.823  14.121   2.997  0.00  0.00    +0.000 C 
ATOM     12  C23 VCV A 401       9.550  13.628   2.758  0.00  0.00    +0.000 C 
ATOM     13  C24 VCV A 401       8.982  12.589   3.570  0.00  0.00    +0.000 C 
ATOM     14  C25 VCV A 401      11.054  12.673   4.864  0.00  0.00    +0.000 C 
ATOM     15  N5  VCV A 401       9.792  12.169   4.602  0.00  0.00    +0.000 N 
ATOM     16  C28 VCV A 401       9.289  11.115   5.473  0.00  0.00    +0.000 C 
ATOM     17  O3  VCV A 401       7.865  12.091   3.373  0.00  0.00    +0.000 OA
ATOM     18  N6  VCV A 401       8.831  14.098   1.677  0.00  0.00    +0.000 NA
BRANCH  18  19
ATOM     19  C29 VCV A 401       9.362  15.042   0.692  0.00  0.00    +0.000 C 
ATOM     20  C30 VCV A 401      10.446  14.526  -0.311  0.00  0.00    +0.000 C 
ATOM     21  C31 VCV A 401       8.527  15.457  -0.562  0.00  0.00    +0.000 C 
ATOM     22  N7  VCV A 401       9.708  15.207  -1.400  0.00  0.00    +0.000 NA
ENDBRANCH  18  19
ENDBRANCH   3  10
BRANCH   9  23
ATOM     23  C9  VCV A 401      15.858  15.531   1.052  0.00  0.00    +0.000 C 
ATOM     24  C20 VCV A 401      17.269  15.692   0.414  0.00  0.00    +0.000 C 
BRANCH  23  25
ATOM     25  C10 VCV A 401      14.970  16.723   0.680  0.00  0.00    +0.000 A 
ATOM     26  C11 VCV A 401      15.471  17.960   0.292  0.00  0.00    +0.000 A 
ATOM     27  C12 VCV A 401      14.580  19.001   0.057  0.00  0.00    +0.000 A 
ATOM     28  C13 VCV A 401      13.233  18.819   0.313  0.00  0.00    +0.000 A 
ATOM     29  C14 VCV A 401      12.818  17.597   0.722  0.00  0.00    +0.000 A 
ATOM     30  N2  VCV A 401      13.669  16.576   0.909  0.00  0.00    +0.000 NA
ENDBRANCH  23  25
BRANCH  23  31
ATOM     31  C15 VCV A 401      15.329  14.168   0.579  0.00  0.00    +0.000 A 
ATOM     32  C16 VCV A 401      14.164  12.927  -0.936  0.00  0.00    +0.000 A 
ATOM     33  C17 VCV A 401      14.535  11.732  -0.352  0.00  0.00    +0.000 A 
ATOM     34  C18 VCV A 401      15.363  11.782   0.741  0.00  0.00    +0.000 A 
ATOM     35  C19 VCV A 401      15.747  13.016   1.207  0.00  0.00    +0.000 A 
ATOM     36  N1  VCV A 401      14.546  14.131  -0.497  0.00  0.00    +0.000 NA
ENDBRANCH  23  31
ENDBRANCH   9  23
BRANCH   1  37
ATOM     37  N4  VCV A 401      14.943  15.747   7.046  0.00  0.00    +0.000 NA
BRANCH  37  38
ATOM     38  S1  VCV A 401      14.029  15.953   8.369  0.00  0.00    +0.000 S 
ATOM     39  O1  VCV A 401      12.738  16.419   7.978  0.00  0.00    +0.000 OA
ATOM     40  O2  VCV A 401      14.793  16.752   9.289  0.00  0.00    +0.000 OA
BRANCH  38  41
ATOM     41  C26 VCV A 401      13.816  14.349   9.100  0.00  0.00    +0.000 C 
ATOM     42  C27 VCV A 401      15.129  13.731   9.465  0.00  0.00    +0.000 C 
ENDBRANCH  38  41
ENDBRANCH  37  38
ENDBRANCH   1  37
TORSDOF 8
