REMARK  Name = /Users/chinazoemeh/HopeMScP/data/ligands/BRD4-BD1_BRD4-BD1_105_8V9F/BRD4-BD1_BRD4-BD1_105_8V9F.pdb
REMARK  4 active torsions:
REMARK  status: ('A' for Active; 'I' for Inactive)
REMARK    1  A    between atoms: C15_1  and  C14_16
REMARK    2  A    between atoms: C01_8  and  C02_9
REMARK    3  A    between atoms: C14_16  and  N08_29
REMARK    4  A    between atoms: C19_19  and  C36_27
REMARK                            x       y       z     vdW  Elec       q    Type
REMARK                         _______ _______ _______ _____ _____    ______ ____
ROOT
ATOM      1  C17 YPB A 201       8.870  -5.199  -2.320  0.00  0.00    +0.000 A 
ATOM      2  C20 YPB A 201       8.969  -5.790  -4.967  0.00  0.00    +0.000 A 
ATOM      3  C21 YPB A 201       9.530  -6.670  -4.012  0.00  0.00    +0.000 A 
ATOM      4  C24 YPB A 201       9.960  -9.985  -5.464  0.00  0.00    +0.000 C 
ATOM      5  C26 YPB A 201       9.131 -11.584  -3.893  0.00  0.00    +0.000 A 
ATOM      6  C28 YPB A 201       7.677 -10.658  -2.102  0.00  0.00    +0.000 C 
ATOM      7  C01 YPB A 201       7.912  -7.105   1.644  0.00  0.00    +0.000 C 
ATOM      8  C02 YPB A 201       9.023  -6.988   0.606  0.00  0.00    +0.000 C 
ATOM      9  C03 YPB A 201       9.152  -7.727  -0.531  0.00  0.00    +0.000 C 
ATOM     10  C04 YPB A 201      10.139  -7.285  -1.566  0.00  0.00    +0.000 C 
ATOM     11  C05 YPB A 201      11.280  -6.586  -0.932  0.00  0.00    +0.000 A 
ATOM     12  C06 YPB A 201      11.247  -6.098   0.329  0.00  0.00    +0.000 A 
ATOM     13  C09 YPB A 201      13.460  -5.182   0.175  0.00  0.00    +0.000 A 
ATOM     14  C11 YPB A 201      12.479  -6.397  -1.694  0.00  0.00    +0.000 A 
ATOM     15  C16 YPB A 201       9.520  -6.376  -2.658  0.00  0.00    +0.000 A 
ATOM     16  C18 YPB A 201       8.312  -4.332  -3.245  0.00  0.00    +0.000 A 
ATOM     17  C19 YPB A 201       8.348  -4.599  -4.576  0.00  0.00    +0.000 A 
ATOM     18  C23 YPB A 201       9.775  -8.417  -5.580  0.00  0.00    +0.000 C 
ATOM     19  C27 YPB A 201       8.490 -11.749  -2.708  0.00  0.00    +0.000 A 
ATOM     20  C30 YPB A 201       8.084  -8.623  -0.904  0.00  0.00    +0.000 C 
ATOM     21  C32 YPB A 201       8.644 -12.985  -2.058  0.00  0.00    +0.000 A 
ATOM     22  C33 YPB A 201       9.411 -14.005  -2.592  0.00  0.00    +0.000 A 
ATOM     23  C34 YPB A 201      10.046 -13.820  -3.814  0.00  0.00    +0.000 A 
ATOM     24  C35 YPB A 201       9.906 -12.593  -4.473  0.00  0.00    +0.000 A 
ATOM     25  C36 YPB A 201       7.761  -3.687  -5.544  0.00  0.00    +0.000 C 
ATOM     26  N07 YPB A 201      10.095  -6.270   1.071  0.00  0.00    +0.000 N 
ATOM     27  N08 YPB A 201      12.303  -5.429   0.910  0.00  0.00    +0.000 N 
ATOM     28  N10 YPB A 201      13.533  -5.693  -1.074  0.00  0.00    +0.000 N 
ATOM     29  O12 YPB A 201      12.694  -6.810  -2.835  0.00  0.00    +0.000 OA
ATOM     30  O13 YPB A 201      14.382  -4.548   0.655  0.00  0.00    +0.000 OA
ATOM     31  O22 YPB A 201      10.145  -7.875  -4.348  0.00  0.00    +0.000 OA
ATOM     32  O25 YPB A 201       8.979 -10.412  -4.571  0.00  0.00    +0.000 OA
ATOM     33  O29 YPB A 201       8.529  -9.574  -1.744  0.00  0.00    +0.000 OA
ATOM     34  O31 YPB A 201       6.887  -8.604  -0.598  0.00  0.00    +0.000 OA
ATOM     35 H071 YPB A 201      10.025  -5.925   1.856  0.00  0.00    +0.000 HD
ATOM     36 H101 YPB A 201      14.273  -5.569  -1.495  0.00  0.00    +0.000 HD
ENDROOT
BRANCH  27  38
ATOM     37  C15 YPB A 201      11.758  -3.539   2.480  0.00  0.00    +0.000 C 
ATOM     38  C14 YPB A 201      12.311  -4.912   2.292  0.00  0.00    +0.000 C 
ENDBRANCH  27  38
TORSDOF 1
