REMARK  Name = /Users/chinazoemeh/HopeMScP/data/ligands/BRD4-BD1_BRD4-BD1_70_6V1L/BRD4-BD1_BRD4-BD1_70_6V1L.pdb
REMARK  5 active torsions:
REMARK  status: ('A' for Active; 'I' for Inactive)
REMARK    1  A    between atoms: C10_6  and  C18_13
REMARK    2  A    between atoms: C17_8  and  O25_18
REMARK    3  A    between atoms: C20_9  and  O22_23
REMARK    4  A    between atoms: C21_10  and  C14_22
REMARK    5  A    between atoms: C14_22  and  N15_24
REMARK                            x       y       z     vdW  Elec       q    Type
REMARK                         _______ _______ _______ _____ _____    ______ ____
ROOT
ATOM      1  C13 5U6 A 201     -17.758   9.294  -2.599  0.00  0.00    +0.000 A 
ATOM      2  C17 5U6 A 201     -16.980  10.290  -3.222  0.00  0.00    +0.000 A 
ATOM      3  C20 5U6 A 201     -18.443   8.463  -4.788  0.00  0.00    +0.000 A 
ATOM      4  C21 5U6 A 201     -18.490   8.364  -3.370  0.00  0.00    +0.000 A 
ATOM      5  C18 5U6 A 201     -16.918  10.402  -4.654  0.00  0.00    +0.000 A 
ATOM      6  C19 5U6 A 201     -17.665   9.470  -5.425  0.00  0.00    +0.000 A 
ENDROOT
BRANCH   5  12
ATOM      7  N3  5U6 A 201     -17.239  15.472  -4.294  0.00  0.00    +0.000 NA
ATOM      8  C4  5U6 A 201     -16.190  15.247  -5.126  0.00  0.00    +0.000 A 
ATOM      9  C5  5U6 A 201     -16.530  12.826  -4.927  0.00  0.00    +0.000 A 
ATOM     10  C6  5U6 A 201     -15.800  13.924  -5.475  0.00  0.00    +0.000 A 
ATOM     11  C7  5U6 A 201     -14.718  13.672  -6.353  0.00  0.00    +0.000 A 
ATOM     12  C10 5U6 A 201     -16.159  11.478  -5.241  0.00  0.00    +0.000 A 
ATOM     13  C1  5U6 A 201     -17.619  13.137  -4.062  0.00  0.00    +0.000 A 
ATOM     14  N8  5U6 A 201     -14.371  12.376  -6.662  0.00  0.00    +0.000 N 
ATOM     15  C2  5U6 A 201     -17.949  14.463  -3.743  0.00  0.00    +0.000 A 
ATOM     16  C9  5U6 A 201     -15.073  11.303  -6.128  0.00  0.00    +0.000 A 
ATOM     17  C12 5U6 A 201     -13.258  12.112  -7.557  0.00  0.00    +0.000 C 
ATOM     18  O11 5U6 A 201     -14.079  14.653  -6.830  0.00  0.00    +0.000 OA
ENDBRANCH   5  12
BRANCH   2  20
ATOM     19  C26 5U6 A 201     -15.602  10.503  -1.290  0.00  0.00    +0.000 C 
ATOM     20  O25 5U6 A 201     -16.305  11.152  -2.387  0.00  0.00    +0.000 OA
ENDBRANCH   2  20
BRANCH   3  21
ATOM     21  O22 5U6 A 201     -19.149   7.566  -5.562  0.00  0.00    +0.000 OA
ATOM     22  C23 5U6 A 201     -18.458   7.121  -6.749  0.00  0.00    +0.000 C 
ENDBRANCH   3  21
BRANCH   4  23
ATOM     23  C14 5U6 A 201     -19.318   7.334  -2.663  0.00  0.00    +0.000 C 
BRANCH  23  26
ATOM     24  C24 5U6 A 201     -21.173   9.028  -2.285  0.00  0.00    +0.000 C 
ATOM     25  C16 5U6 A 201     -21.743   6.600  -2.335  0.00  0.00    +0.000 C 
ATOM     26  N15 5U6 A 201     -20.793   7.668  -2.794  0.00  0.00    +0.000 NA
ENDBRANCH  23  26
ENDBRANCH   4  23
TORSDOF 5
