REMARK  Name = /Users/chinazoemeh/HopeMScP/data/ligands/BRD4-BD1_BRD4-BD1_72_7FH2/BRD4-BD1_BRD4-BD1_72_7FH2.pdb
REMARK  44 active torsions:
REMARK  status: ('A' for Active; 'I' for Inactive)
REMARK    1  A    between atoms: CAA_1  and  CAG_7
REMARK    2  A    between atoms: CAC_3  and  CAQ_16
REMARK    3  A    between atoms: CAD_4  and  OAS_27
REMARK    4  A    between atoms: CAF_6  and  OAR_26
REMARK    5  A    between atoms: CAG_7  and  CAH_8
REMARK    6  A    between atoms: CAH_8  and  CAI_9
REMARK    7  A    between atoms: CAI_9  and  CAK_10
REMARK    8  A    between atoms: CAN_13  and  OAX_29
REMARK    9  A    between atoms: CAO_14  and  OAV_28
REMARK   10  A    between atoms: CAQ_16  and  CAZ_21
REMARK   11  A    between atoms: CAZ_21  and  NBA_24
REMARK   12  A    between atoms: CAA_31  and  CAG_37
REMARK   13  A    between atoms: CAC_33  and  CAQ_46
REMARK   14  A    between atoms: CAD_34  and  OAS_57
REMARK   15  A    between atoms: CAF_36  and  OAR_56
REMARK   16  A    between atoms: CAG_37  and  CAH_38
REMARK   17  A    between atoms: CAH_38  and  CAI_39
REMARK   18  A    between atoms: CAI_39  and  CAK_40
REMARK   19  A    between atoms: CAN_43  and  OAX_59
REMARK   20  A    between atoms: CAO_44  and  OAV_58
REMARK   21  A    between atoms: CAQ_46  and  CAZ_51
REMARK   22  A    between atoms: CAZ_51  and  NBA_54
REMARK   23  A    between atoms: CAA_61  and  CAG_67
REMARK   24  A    between atoms: CAC_63  and  CAQ_76
REMARK   25  A    between atoms: CAD_64  and  OAS_87
REMARK   26  A    between atoms: CAF_66  and  OAR_86
REMARK   27  A    between atoms: CAG_67  and  CAH_68
REMARK   28  A    between atoms: CAH_68  and  CAI_69
REMARK   29  A    between atoms: CAI_69  and  CAK_70
REMARK   30  A    between atoms: CAN_73  and  OAX_89
REMARK   31  A    between atoms: CAO_74  and  OAV_88
REMARK   32  A    between atoms: CAQ_76  and  CAZ_81
REMARK   33  A    between atoms: CAZ_81  and  NBA_84
REMARK   34  A    between atoms: CAA_91  and  CAG_97
REMARK   35  A    between atoms: CAC_93  and  CAQ_106
REMARK   36  A    between atoms: CAD_94  and  OAS_117
REMARK   37  A    between atoms: CAF_96  and  OAR_116
REMARK   38  A    between atoms: CAG_97  and  CAH_98
REMARK   39  A    between atoms: CAH_98  and  CAI_99
REMARK   40  A    between atoms: CAI_99  and  CAK_100
REMARK   41  A    between atoms: CAN_103  and  OAX_119
REMARK   42  A    between atoms: CAO_104  and  OAV_118
REMARK   43  A    between atoms: CAQ_106  and  CAZ_111
REMARK   44  A    between atoms: CAZ_111  and  NBA_114
REMARK                            x       y       z     vdW  Elec       q    Type
REMARK                         _______ _______ _______ _____ _____    ______ ____
ROOT
ATOM      1  CAA 4JI A 201      19.761  -9.637 -23.621  0.00  0.00    +0.000 A 
ATOM      2  CAB 4JI A 201      20.345 -10.808 -24.099  0.00  0.00    +0.000 A 
ATOM      3  CAC 4JI A 201      18.380  -9.614 -23.347  0.00  0.00    +0.000 A 
ATOM      4  CAD 4JI A 201      19.575 -11.943 -24.326  0.00  0.00    +0.000 A 
ATOM      5  CAE 4JI A 201      17.617 -10.756 -23.592  0.00  0.00    +0.000 A 
ATOM      6  CAF 4JI A 201      18.215 -11.917 -24.074  0.00  0.00    +0.000 A 
ENDROOT
BRANCH   1   7
ATOM      7  CAG 4JI A 201      20.616  -8.552 -23.409  0.00  0.00    +0.000 C 
ATOM      8  OAJ 4JI A 201      20.673  -7.957 -22.335  0.00  0.00    +0.000 OA
BRANCH   7   9
ATOM      9  CAH 4JI A 201      21.589  -8.189 -24.539  0.00  0.00    +0.000 C 
BRANCH   9  10
ATOM     10  CAI 4JI A 201      22.507  -7.019 -24.168  0.00  0.00    +0.000 C 
BRANCH  10  11
ATOM     11  CAK 4JI A 201      23.427  -6.581 -25.116  0.00  0.00    +0.000 A 
ATOM     12  CAL 4JI A 201      25.434  -5.317 -25.599  0.00  0.00    +0.000 A 
ATOM     13  CAM 4JI A 201      25.319  -5.654 -26.941  0.00  0.00    +0.000 A 
ATOM     14  CAN 4JI A 201      24.484  -5.784 -24.696  0.00  0.00    +0.000 A 
ATOM     15  CAO 4JI A 201      24.263  -6.453 -27.373  0.00  0.00    +0.000 A 
ATOM     16  CAP 4JI A 201      23.318  -6.919 -26.460  0.00  0.00    +0.000 A 
BRANCH  15  18
ATOM     17  CAW 4JI A 201      24.916  -5.940 -29.546  0.00  0.00    +0.000 C 
ATOM     18  OAV 4JI A 201      24.140  -6.788 -28.689  0.00  0.00    +0.000 OA
ENDBRANCH  15  18
BRANCH  14  20
ATOM     19  CAY 4JI A 201      25.753  -4.881 -22.981  0.00  0.00    +0.000 C 
ATOM     20  OAX 4JI A 201      24.521  -5.502 -23.361  0.00  0.00    +0.000 OA
ENDBRANCH  14  20
ENDBRANCH  10  11
ENDBRANCH   9  10
ENDBRANCH   7   9
ENDBRANCH   1   7
BRANCH   6  22
ATOM     21  CAT 4JI A 201      16.118 -12.908 -24.191  0.00  0.00    +0.000 C 
ATOM     22  OAR 4JI A 201      17.535 -13.075 -24.326  0.00  0.00    +0.000 OA
ENDBRANCH   6  22
BRANCH   4  24
ATOM     23  CAU 4JI A 201      21.435 -12.990 -25.248  0.00  0.00    +0.000 C 
ATOM     24  OAS 4JI A 201      20.081 -13.121 -24.799  0.00  0.00    +0.000 OA
ENDBRANCH   4  24
BRANCH   3  25
ATOM     25  CAQ 4JI A 201      17.626  -8.370 -22.827  0.00  0.00    +0.000 C 
BRANCH  25  26
ATOM     26  CAZ 4JI A 201      17.930  -7.994 -21.366  0.00  0.00    +0.000 C 
BRANCH  26  29
ATOM     27  CBB 4JI A 201      18.167  -9.158 -19.208  0.00  0.00    +0.000 C 
ATOM     28  CBD 4JI A 201      19.258  -8.130 -18.907  0.00  0.00    +0.000 C 
ATOM     29  NBA 4JI A 201      17.579  -9.054 -20.412  0.00  0.00    +0.000 NA
ATOM     30  OBC 4JI A 201      17.893 -10.031 -18.386  0.00  0.00    +0.000 OA
ENDBRANCH  26  29
ENDBRANCH  25  26
ENDBRANCH   3  25
TORSDOF 11
REMARK  Name = /Users/chinazoemeh/HopeMScP/data/ligands/BRD4-BD1_BRD4-BD1_72_7FH2/BRD4-BD1_BRD4-BD1_72_7FH2.pdb
REMARK  44 active torsions:
REMARK  status: ('A' for Active; 'I' for Inactive)
REMARK    1  A    between atoms: CAA_1  and  CAG_7
REMARK    2  A    between atoms: CAC_3  and  CAQ_16
REMARK    3  A    between atoms: CAD_4  and  OAS_27
REMARK    4  A    between atoms: CAF_6  and  OAR_26
REMARK    5  A    between atoms: CAG_7  and  CAH_8
REMARK    6  A    between atoms: CAH_8  and  CAI_9
REMARK    7  A    between atoms: CAI_9  and  CAK_10
REMARK    8  A    between atoms: CAN_13  and  OAX_29
REMARK    9  A    between atoms: CAO_14  and  OAV_28
REMARK   10  A    between atoms: CAQ_16  and  CAZ_21
REMARK   11  A    between atoms: CAZ_21  and  NBA_24
REMARK   12  A    between atoms: CAA_31  and  CAG_37
REMARK   13  A    between atoms: CAC_33  and  CAQ_46
REMARK   14  A    between atoms: CAD_34  and  OAS_57
REMARK   15  A    between atoms: CAF_36  and  OAR_56
REMARK   16  A    between atoms: CAG_37  and  CAH_38
REMARK   17  A    between atoms: CAH_38  and  CAI_39
REMARK   18  A    between atoms: CAI_39  and  CAK_40
REMARK   19  A    between atoms: CAN_43  and  OAX_59
REMARK   20  A    between atoms: CAO_44  and  OAV_58
REMARK   21  A    between atoms: CAQ_46  and  CAZ_51
REMARK   22  A    between atoms: CAZ_51  and  NBA_54
REMARK   23  A    between atoms: CAA_61  and  CAG_67
REMARK   24  A    between atoms: CAC_63  and  CAQ_76
REMARK   25  A    between atoms: CAD_64  and  OAS_87
REMARK   26  A    between atoms: CAF_66  and  OAR_86
REMARK   27  A    between atoms: CAG_67  and  CAH_68
REMARK   28  A    between atoms: CAH_68  and  CAI_69
REMARK   29  A    between atoms: CAI_69  and  CAK_70
REMARK   30  A    between atoms: CAN_73  and  OAX_89
REMARK   31  A    between atoms: CAO_74  and  OAV_88
REMARK   32  A    between atoms: CAQ_76  and  CAZ_81
REMARK   33  A    between atoms: CAZ_81  and  NBA_84
REMARK   34  A    between atoms: CAA_91  and  CAG_97
REMARK   35  A    between atoms: CAC_93  and  CAQ_106
REMARK   36  A    between atoms: CAD_94  and  OAS_117
REMARK   37  A    between atoms: CAF_96  and  OAR_116
REMARK   38  A    between atoms: CAG_97  and  CAH_98
REMARK   39  A    between atoms: CAH_98  and  CAI_99
REMARK   40  A    between atoms: CAI_99  and  CAK_100
REMARK   41  A    between atoms: CAN_103  and  OAX_119
REMARK   42  A    between atoms: CAO_104  and  OAV_118
REMARK   43  A    between atoms: CAQ_106  and  CAZ_111
REMARK   44  A    between atoms: CAZ_111  and  NBA_114
REMARK                            x       y       z     vdW  Elec       q    Type
REMARK                         _______ _______ _______ _____ _____    ______ ____
ROOT
ATOM      1  CAA 4JI B 201     -16.701   9.612   5.252  0.00  0.00    +0.000 A 
ATOM      2  CAB 4JI B 201     -16.104  10.778   5.726  0.00  0.00    +0.000 A 
ATOM      3  CAC 4JI B 201     -18.077   9.604   4.965  0.00  0.00    +0.000 A 
ATOM      4  CAD 4JI B 201     -16.860  11.924   5.937  0.00  0.00    +0.000 A 
ATOM      5  CAE 4JI B 201     -18.826  10.758   5.195  0.00  0.00    +0.000 A 
ATOM      6  CAF 4JI B 201     -18.216  11.914   5.673  0.00  0.00    +0.000 A 
ENDROOT
BRANCH   1   7
ATOM      7  CAG 4JI B 201     -15.855   8.520   5.051  0.00  0.00    +0.000 C 
ATOM      8  OAJ 4JI B 201     -15.794   7.923   3.978  0.00  0.00    +0.000 OA
BRANCH   7   9
ATOM      9  CAH 4JI B 201     -14.879   8.168   6.176  0.00  0.00    +0.000 C 
BRANCH   9  10
ATOM     10  CAI 4JI B 201     -13.961   6.996   5.806  0.00  0.00    +0.000 C 
BRANCH  10  11
ATOM     11  CAK 4JI B 201     -13.045   6.573   6.764  0.00  0.00    +0.000 A 
ATOM     12  CAL 4JI B 201     -11.044   5.318   7.288  0.00  0.00    +0.000 A 
ATOM     13  CAM 4JI B 201     -11.172   5.687   8.620  0.00  0.00    +0.000 A 
ATOM     14  CAN 4JI B 201     -11.987   5.767   6.370  0.00  0.00    +0.000 A 
ATOM     15  CAO 4JI B 201     -12.231   6.496   9.026  0.00  0.00    +0.000 A 
ATOM     16  CAP 4JI B 201     -13.167   6.942   8.098  0.00  0.00    +0.000 A 
BRANCH  15  18
ATOM     17  CAW 4JI B 201     -11.641   5.987  11.204  0.00  0.00    +0.000 C 
ATOM     18  OAV 4JI B 201     -12.366   6.860  10.331  0.00  0.00    +0.000 OA
ENDBRANCH  15  18
BRANCH  14  20
ATOM     19  CAY 4JI B 201     -10.812   4.642   4.719  0.00  0.00    +0.000 C 
ATOM     20  OAX 4JI B 201     -11.941   5.458   5.044  0.00  0.00    +0.000 OA
ENDBRANCH  14  20
ENDBRANCH  10  11
ENDBRANCH   9  10
ENDBRANCH   7   9
ENDBRANCH   1   7
BRANCH   6  22
ATOM     21  CAT 4JI B 201     -20.284  12.969   5.674  0.00  0.00    +0.000 C 
ATOM     22  OAR 4JI B 201     -18.876  13.084   5.914  0.00  0.00    +0.000 OA
ENDBRANCH   6  22
BRANCH   4  24
ATOM     23  CAU 4JI B 201     -14.986  12.980   6.831  0.00  0.00    +0.000 C 
ATOM     24  OAS 4JI B 201     -16.348  13.100   6.404  0.00  0.00    +0.000 OA
ENDBRANCH   4  24
BRANCH   3  25
ATOM     25  CAQ 4JI B 201     -18.838   8.363   4.451  0.00  0.00    +0.000 C 
BRANCH  25  26
ATOM     26  CAZ 4JI B 201     -18.539   7.992   2.990  0.00  0.00    +0.000 C 
BRANCH  26  29
ATOM     27  CBB 4JI B 201     -18.486   9.137   0.809  0.00  0.00    +0.000 C 
ATOM     28  CBD 4JI B 201     -17.356   8.169   0.452  0.00  0.00    +0.000 C 
ATOM     29  NBA 4JI B 201     -19.001   9.015   2.046  0.00  0.00    +0.000 NA
ATOM     30  OBC 4JI B 201     -18.857   9.983   0.000  0.00  0.00    +0.000 OA
ENDBRANCH  26  29
ENDBRANCH  25  26
ENDBRANCH   3  25
TORSDOF 11
REMARK  Name = /Users/chinazoemeh/HopeMScP/data/ligands/BRD4-BD1_BRD4-BD1_72_7FH2/BRD4-BD1_BRD4-BD1_72_7FH2.pdb
REMARK  44 active torsions:
REMARK  status: ('A' for Active; 'I' for Inactive)
REMARK    1  A    between atoms: CAA_1  and  CAG_7
REMARK    2  A    between atoms: CAC_3  and  CAQ_16
REMARK    3  A    between atoms: CAD_4  and  OAS_27
REMARK    4  A    between atoms: CAF_6  and  OAR_26
REMARK    5  A    between atoms: CAG_7  and  CAH_8
REMARK    6  A    between atoms: CAH_8  and  CAI_9
REMARK    7  A    between atoms: CAI_9  and  CAK_10
REMARK    8  A    between atoms: CAN_13  and  OAX_29
REMARK    9  A    between atoms: CAO_14  and  OAV_28
REMARK   10  A    between atoms: CAQ_16  and  CAZ_21
REMARK   11  A    between atoms: CAZ_21  and  NBA_24
REMARK   12  A    between atoms: CAA_31  and  CAG_37
REMARK   13  A    between atoms: CAC_33  and  CAQ_46
REMARK   14  A    between atoms: CAD_34  and  OAS_57
REMARK   15  A    between atoms: CAF_36  and  OAR_56
REMARK   16  A    between atoms: CAG_37  and  CAH_38
REMARK   17  A    between atoms: CAH_38  and  CAI_39
REMARK   18  A    between atoms: CAI_39  and  CAK_40
REMARK   19  A    between atoms: CAN_43  and  OAX_59
REMARK   20  A    between atoms: CAO_44  and  OAV_58
REMARK   21  A    between atoms: CAQ_46  and  CAZ_51
REMARK   22  A    between atoms: CAZ_51  and  NBA_54
REMARK   23  A    between atoms: CAA_61  and  CAG_67
REMARK   24  A    between atoms: CAC_63  and  CAQ_76
REMARK   25  A    between atoms: CAD_64  and  OAS_87
REMARK   26  A    between atoms: CAF_66  and  OAR_86
REMARK   27  A    between atoms: CAG_67  and  CAH_68
REMARK   28  A    between atoms: CAH_68  and  CAI_69
REMARK   29  A    between atoms: CAI_69  and  CAK_70
REMARK   30  A    between atoms: CAN_73  and  OAX_89
REMARK   31  A    between atoms: CAO_74  and  OAV_88
REMARK   32  A    between atoms: CAQ_76  and  CAZ_81
REMARK   33  A    between atoms: CAZ_81  and  NBA_84
REMARK   34  A    between atoms: CAA_91  and  CAG_97
REMARK   35  A    between atoms: CAC_93  and  CAQ_106
REMARK   36  A    between atoms: CAD_94  and  OAS_117
REMARK   37  A    between atoms: CAF_96  and  OAR_116
REMARK   38  A    between atoms: CAG_97  and  CAH_98
REMARK   39  A    between atoms: CAH_98  and  CAI_99
REMARK   40  A    between atoms: CAI_99  and  CAK_100
REMARK   41  A    between atoms: CAN_103  and  OAX_119
REMARK   42  A    between atoms: CAO_104  and  OAV_118
REMARK   43  A    between atoms: CAQ_106  and  CAZ_111
REMARK   44  A    between atoms: CAZ_111  and  NBA_114
REMARK                            x       y       z     vdW  Elec       q    Type
REMARK                         _______ _______ _______ _____ _____    ______ ____
ROOT
ATOM      1  CAA 4JI B 202     -17.856   3.759  14.992  0.00  0.00    +0.000 A 
ATOM      2  CAB 4JI B 202     -18.510   2.623  14.515  0.00  0.00    +0.000 A 
ATOM      3  CAC 4JI B 202     -18.606   4.805  15.555  0.00  0.00    +0.000 A 
ATOM      4  CAD 4JI B 202     -19.896   2.527  14.581  0.00  0.00    +0.000 A 
ATOM      5  CAE 4JI B 202     -19.994   4.700  15.605  0.00  0.00    +0.000 A 
ATOM      6  CAF 4JI B 202     -20.635   3.562  15.125  0.00  0.00    +0.000 A 
ENDROOT
BRANCH   1   7
ATOM      7  CAG 4JI B 202     -16.460   3.775  14.894  0.00  0.00    +0.000 C 
ATOM      8  OAJ 4JI B 202     -15.726   4.015  15.852  0.00  0.00    +0.000 OA
BRANCH   7   9
ATOM      9  CAH 4JI B 202     -15.862   3.380  13.540  0.00  0.00    +0.000 C 
BRANCH   9  10
ATOM     10  CAI 4JI B 202     -14.329   3.383  13.521  0.00  0.00    +0.000 C 
BRANCH  10  11
ATOM     11  CAK 4JI B 202     -13.719   3.058  12.313  0.00  0.00    +0.000 A 
ATOM     12  CAL 4JI B 202     -11.758   2.329  11.103  0.00  0.00    +0.000 A 
ATOM     13  CAM 4JI B 202     -12.470   2.404   9.912  0.00  0.00    +0.000 A 
ATOM     14  CAN 4JI B 202     -12.388   2.658  12.298  0.00  0.00    +0.000 A 
ATOM     15  CAO 4JI B 202     -13.806   2.804   9.914  0.00  0.00    +0.000 A 
ATOM     16  CAP 4JI B 202     -14.427   3.130  11.117  0.00  0.00    +0.000 A 
BRANCH  15  18
ATOM     17  CAW 4JI B 202     -13.705   2.654   7.594  0.00  0.00    +0.000 C 
ATOM     18  OAV 4JI B 202     -14.519   2.883   8.751  0.00  0.00    +0.000 OA
ENDBRANCH  15  18
BRANCH  14  20
ATOM     19  CAY 4JI B 202     -10.507   1.906  13.441  0.00  0.00    +0.000 C 
ATOM     20  OAX 4JI B 202     -11.755   2.611  13.509  0.00  0.00    +0.000 OA
ENDBRANCH  14  20
ENDBRANCH  10  11
ENDBRANCH   9  10
ENDBRANCH   7   9
ENDBRANCH   1   7
BRANCH   6  22
ATOM     21  CAT 4JI B 202     -22.673   4.496  15.747  0.00  0.00    +0.000 C 
ATOM     22  OAR 4JI B 202     -21.990   3.384  15.153  0.00  0.00    +0.000 OA
ENDBRANCH   6  22
BRANCH   4  24
ATOM     23  CAU 4JI B 202     -19.766   0.411  13.617  0.00  0.00    +0.000 C 
ATOM     24  OAS 4JI B 202     -20.610   1.450  14.134  0.00  0.00    +0.000 OA
ENDBRANCH   4  24
BRANCH   3  25
ATOM     25  CAQ 4JI B 202     -17.984   6.109  16.092  0.00  0.00    +0.000 C 
BRANCH  25  26
ATOM     26  CAZ 4JI B 202     -17.264   5.969  17.445  0.00  0.00    +0.000 C 
BRANCH  26  29
ATOM     27  CBB 4JI B 202     -17.639   4.632  19.478  0.00  0.00    +0.000 C 
ATOM     28  CBD 4JI B 202     -16.133   4.361  19.441  0.00  0.00    +0.000 C 
ATOM     29  NBA 4JI B 202     -18.124   5.406  18.489  0.00  0.00    +0.000 NA
ATOM     30  OBC 4JI B 202     -18.333   4.149  20.369  0.00  0.00    +0.000 OA
ENDBRANCH  26  29
ENDBRANCH  25  26
ENDBRANCH   3  25
TORSDOF 11
REMARK  Name = /Users/chinazoemeh/HopeMScP/data/ligands/BRD4-BD1_BRD4-BD1_72_7FH2/BRD4-BD1_BRD4-BD1_72_7FH2.pdb
REMARK  44 active torsions:
REMARK  status: ('A' for Active; 'I' for Inactive)
REMARK    1  A    between atoms: CAA_1  and  CAG_7
REMARK    2  A    between atoms: CAC_3  and  CAQ_16
REMARK    3  A    between atoms: CAD_4  and  OAS_27
REMARK    4  A    between atoms: CAF_6  and  OAR_26
REMARK    5  A    between atoms: CAG_7  and  CAH_8
REMARK    6  A    between atoms: CAH_8  and  CAI_9
REMARK    7  A    between atoms: CAI_9  and  CAK_10
REMARK    8  A    between atoms: CAN_13  and  OAX_29
REMARK    9  A    between atoms: CAO_14  and  OAV_28
REMARK   10  A    between atoms: CAQ_16  and  CAZ_21
REMARK   11  A    between atoms: CAZ_21  and  NBA_24
REMARK   12  A    between atoms: CAA_31  and  CAG_37
REMARK   13  A    between atoms: CAC_33  and  CAQ_46
REMARK   14  A    between atoms: CAD_34  and  OAS_57
REMARK   15  A    between atoms: CAF_36  and  OAR_56
REMARK   16  A    between atoms: CAG_37  and  CAH_38
REMARK   17  A    between atoms: CAH_38  and  CAI_39
REMARK   18  A    between atoms: CAI_39  and  CAK_40
REMARK   19  A    between atoms: CAN_43  and  OAX_59
REMARK   20  A    between atoms: CAO_44  and  OAV_58
REMARK   21  A    between atoms: CAQ_46  and  CAZ_51
REMARK   22  A    between atoms: CAZ_51  and  NBA_54
REMARK   23  A    between atoms: CAA_61  and  CAG_67
REMARK   24  A    between atoms: CAC_63  and  CAQ_76
REMARK   25  A    between atoms: CAD_64  and  OAS_87
REMARK   26  A    between atoms: CAF_66  and  OAR_86
REMARK   27  A    between atoms: CAG_67  and  CAH_68
REMARK   28  A    between atoms: CAH_68  and  CAI_69
REMARK   29  A    between atoms: CAI_69  and  CAK_70
REMARK   30  A    between atoms: CAN_73  and  OAX_89
REMARK   31  A    between atoms: CAO_74  and  OAV_88
REMARK   32  A    between atoms: CAQ_76  and  CAZ_81
REMARK   33  A    between atoms: CAZ_81  and  NBA_84
REMARK   34  A    between atoms: CAA_91  and  CAG_97
REMARK   35  A    between atoms: CAC_93  and  CAQ_106
REMARK   36  A    between atoms: CAD_94  and  OAS_117
REMARK   37  A    between atoms: CAF_96  and  OAR_116
REMARK   38  A    between atoms: CAG_97  and  CAH_98
REMARK   39  A    between atoms: CAH_98  and  CAI_99
REMARK   40  A    between atoms: CAI_99  and  CAK_100
REMARK   41  A    between atoms: CAN_103  and  OAX_119
REMARK   42  A    between atoms: CAO_104  and  OAV_118
REMARK   43  A    between atoms: CAQ_106  and  CAZ_111
REMARK   44  A    between atoms: CAZ_111  and  NBA_114
REMARK                            x       y       z     vdW  Elec       q    Type
REMARK                         _______ _______ _______ _____ _____    ______ ____
ROOT
ATOM      1  CAA 4JI D 201      17.862   3.794  21.902  0.00  0.00    +0.000 A 
ATOM      2  CAB 4JI D 201      18.545   2.676  22.373  0.00  0.00    +0.000 A 
ATOM      3  CAC 4JI D 201      18.583   4.861  21.339  0.00  0.00    +0.000 A 
ATOM      4  CAD 4JI D 201      19.932   2.615  22.301  0.00  0.00    +0.000 A 
ATOM      5  CAE 4JI D 201      19.974   4.792  21.282  0.00  0.00    +0.000 A 
ATOM      6  CAF 4JI D 201      20.646   3.669  21.757  0.00  0.00    +0.000 A 
ENDROOT
BRANCH   1   7
ATOM      7  CAG 4JI D 201      16.470   3.765  22.013  0.00  0.00    +0.000 C 
ATOM      8  OAJ 4JI D 201      15.721   3.961  21.058  0.00  0.00    +0.000 OA
BRANCH   7   9
ATOM      9  CAH 4JI D 201      15.901   3.374  23.385  0.00  0.00    +0.000 C 
BRANCH   9  10
ATOM     10  CAI 4JI D 201      14.370   3.325  23.422  0.00  0.00    +0.000 C 
BRANCH  10  11
ATOM     11  CAK 4JI D 201      13.767   2.997  24.633  0.00  0.00    +0.000 A 
ATOM     12  CAL 4JI D 201      11.813   2.200  25.816  0.00  0.00    +0.000 A 
ATOM     13  CAM 4JI D 201      12.495   2.323  27.021  0.00  0.00    +0.000 A 
ATOM     14  CAN 4JI D 201      12.454   2.539  24.630  0.00  0.00    +0.000 A 
ATOM     15  CAO 4JI D 201      13.813   2.781  27.039  0.00  0.00    +0.000 A 
ATOM     16  CAP 4JI D 201      14.446   3.117  25.843  0.00  0.00    +0.000 A 
BRANCH  15  18
ATOM     17  CAW 4JI D 201      13.671   2.642  29.363  0.00  0.00    +0.000 C 
ATOM     18  OAV 4JI D 201      14.493   2.909  28.219  0.00  0.00    +0.000 OA
ENDBRANCH  15  18
BRANCH  14  20
ATOM     19  CAY 4JI D 201      10.580   1.795  23.482  0.00  0.00    +0.000 C 
ATOM     20  OAX 4JI D 201      11.854   2.447  23.406  0.00  0.00    +0.000 OA
ENDBRANCH  14  20
ENDBRANCH  10  11
ENDBRANCH   9  10
ENDBRANCH   7   9
ENDBRANCH   1   7
BRANCH   6  22
ATOM     21  CAT 4JI D 201      22.671   4.636  21.124  0.00  0.00    +0.000 C 
ATOM     22  OAR 4JI D 201      22.004   3.521  21.728  0.00  0.00    +0.000 OA
ENDBRANCH   6  22
BRANCH   4  24
ATOM     23  CAU 4JI D 201      19.839   0.560  23.374  0.00  0.00    +0.000 C 
ATOM     24  OAS 4JI D 201      20.664   1.552  22.747  0.00  0.00    +0.000 OA
ENDBRANCH   4  24
BRANCH   3  25
ATOM     25  CAQ 4JI D 201      17.920   6.147  20.808  0.00  0.00    +0.000 C 
BRANCH  25  26
ATOM     26  CAZ 4JI D 201      17.193   5.977  19.464  0.00  0.00    +0.000 C 
BRANCH  26  29
ATOM     27  CBB 4JI D 201      17.638   4.721  17.396  0.00  0.00    +0.000 C 
ATOM     28  CBD 4JI D 201      16.156   4.340  17.450  0.00  0.00    +0.000 C 
ATOM     29  NBA 4JI D 201      18.080   5.504  18.397  0.00  0.00    +0.000 NA
ATOM     30  OBC 4JI D 201      18.352   4.314  16.481  0.00  0.00    +0.000 OA
ENDBRANCH  26  29
ENDBRANCH  25  26
ENDBRANCH   3  25
TORSDOF 11
