REMARK  Name = /Users/chinazoemeh/HopeMScP/data/ligands/BRD4-BD1_BRD4-BD1_107_6U72/BRD4-BD1_BRD4-BD1_107_6U72.pdb
REMARK  12 active torsions:
REMARK  status: ('A' for Active; 'I' for Inactive)
REMARK    1  A    between atoms: NZ_4  and  CE_5
REMARK    2  A    between atoms: CE_5  and  CD_6
REMARK    3  A    between atoms: CD_6  and  CG_7
REMARK    4  A    between atoms: CG_7  and  CB_8
REMARK    5  A    between atoms: CB_8  and  CA_9
REMARK    6  A    between atoms: CA_9  and  C_11
REMARK    7  A    between atoms: NZ_16  and  CE_17
REMARK    8  A    between atoms: CE_17  and  CD_18
REMARK    9  A    between atoms: CD_18  and  CG_19
REMARK   10  A    between atoms: CG_19  and  CB_20
REMARK   11  A    between atoms: CB_20  and  CA_21
REMARK   12  A    between atoms: CA_21  and  C_23
REMARK                            x       y       z     vdW  Elec       q    Type
REMARK                         _______ _______ _______ _____ _____    ______ ____
ROOT
ATOM      1  CD  ALY C   7      48.654 -12.459  18.974  0.00  0.00    +0.000 C 
ENDROOT
BRANCH   1   2
ATOM      2  CE  ALY C   7      47.446 -12.500  18.032  0.00  0.00    +0.000 C 
BRANCH   2   6
ATOM      3  OH  ALY C   7      45.673 -12.501  15.752  0.00  0.00    +0.000 OA
ATOM      4  CH  ALY C   7      46.775 -11.917  15.686  0.00  0.00    +0.000 C 
ATOM      5  CH3 ALY C   7      47.202 -11.202  14.427  0.00  0.00    +0.000 C 
ATOM      6  NZ  ALY C   7      47.666 -11.887  16.750  0.00  0.00    +0.000 NA
ENDBRANCH   2   6
ENDBRANCH   1   2
BRANCH   1   7
ATOM      7  CG  ALY C   7      48.303 -13.079  20.312  0.00  0.00    +0.000 C 
BRANCH   7   8
ATOM      8  CB  ALY C   7      47.586 -12.076  21.180  0.00  0.00    +0.000 C 
BRANCH   8   9
ATOM      9  CA  ALY C   7      47.377 -12.609  22.607  0.00  0.00    +0.000 C 
ATOM     10  N   ALY C   7      46.262 -11.997  23.301  0.00  0.00    +0.000 NA
BRANCH   9  11
ATOM     11  C   ALY C   7      48.667 -12.392  23.385  0.00  0.00    +0.000 C 
ATOM     12  O   ALY C   7      49.023 -11.305  23.853  0.00  0.00    +0.000 OA
ENDBRANCH   9  11
ENDBRANCH   8   9
ENDBRANCH   7   8
ENDBRANCH   1   7
TORSDOF 6
REMARK  Name = /Users/chinazoemeh/HopeMScP/data/ligands/BRD4-BD1_BRD4-BD1_107_6U72/BRD4-BD1_BRD4-BD1_107_6U72.pdb
REMARK  12 active torsions:
REMARK  status: ('A' for Active; 'I' for Inactive)
REMARK    1  A    between atoms: NZ_4  and  CE_5
REMARK    2  A    between atoms: CE_5  and  CD_6
REMARK    3  A    between atoms: CD_6  and  CG_7
REMARK    4  A    between atoms: CG_7  and  CB_8
REMARK    5  A    between atoms: CB_8  and  CA_9
REMARK    6  A    between atoms: CA_9  and  C_11
REMARK    7  A    between atoms: NZ_16  and  CE_17
REMARK    8  A    between atoms: CE_17  and  CD_18
REMARK    9  A    between atoms: CD_18  and  CG_19
REMARK   10  A    between atoms: CG_19  and  CB_20
REMARK   11  A    between atoms: CB_20  and  CA_21
REMARK   12  A    between atoms: CA_21  and  C_23
REMARK                            x       y       z     vdW  Elec       q    Type
REMARK                         _______ _______ _______ _____ _____    ______ ____
ROOT
ATOM      1  CD  ALY C  12      64.283  -7.557  20.558  0.00  0.00    +0.000 C 
ENDROOT
BRANCH   1   2
ATOM      2  CE  ALY C  12      64.160  -7.658  19.035  0.00  0.00    +0.000 C 
BRANCH   2   6
ATOM      3  OH  ALY C  12      62.660  -5.314  18.580  0.00  0.00    +0.000 OA
ATOM      4  CH  ALY C  12      63.817  -5.377  18.110  0.00  0.00    +0.000 C 
ATOM      5  CH3 ALY C  12      64.410  -4.234  17.318  0.00  0.00    +0.000 C 
ATOM      6  NZ  ALY C  12      64.604  -6.502  18.300  0.00  0.00    +0.000 NA
ENDBRANCH   2   6
ENDBRANCH   1   2
BRANCH   1   7
ATOM      7  CG  ALY C  12      63.760  -8.826  21.213  0.00  0.00    +0.000 C 
BRANCH   7   8
ATOM      8  CB  ALY C  12      64.042  -8.862  22.703  0.00  0.00    +0.000 C 
BRANCH   8   9
ATOM      9  CA  ALY C  12      63.343 -10.033  23.431  0.00  0.00    +0.000 C 
ATOM     10  N   ALY C  12      61.927  -9.846  23.653  0.00  0.00    +0.000 NA
BRANCH   9  11
ATOM     11  C   ALY C  12      64.029 -10.236  24.773  0.00  0.00    +0.000 C 
ATOM     12  O   ALY C  12      65.117 -10.792  24.917  0.00  0.00    +0.000 OA
ENDBRANCH   9  11
ENDBRANCH   8   9
ENDBRANCH   7   8
ENDBRANCH   1   7
TORSDOF 6
