REMARK  Name = /Users/chinazoemeh/HopeMScP/data/ligands/BRD4-BD1_BRD4-BD1_32_7JKY/BRD4-BD1_BRD4-BD1_32_7JKY.pdb
REMARK  32 active torsions:
REMARK  status: ('A' for Active; 'I' for Inactive)
REMARK    1  A    between atoms: C1_1  and  C6_12
REMARK    2  A    between atoms: C3_6  and  C4_7
REMARK    3  A    between atoms: C4_7  and  N4_48
REMARK    4  A    between atoms: C5_9  and  C5_10
REMARK    5  A    between atoms: C9_18  and  N2_25
REMARK    6  A    between atoms: C10_19  and  N1_22
REMARK    7  A    between atoms: C12_28  and  C13_29
REMARK    8  A    between atoms: C13_29  and  C15_36
REMARK    9  A    between atoms: C13_30  and  C15_35
REMARK   10  A    between atoms: C14_31  and  N3_34
REMARK   11  A    between atoms: C14_31  and  C15_36
REMARK   12  A    between atoms: C14_32  and  N3_33
REMARK   13  A    between atoms: C14_32  and  C15_35
REMARK   14  A    between atoms: N3_33  and  N3_34
REMARK   15  A    between atoms: N4_47  and  N4_48
REMARK   16  A    between atoms: N4_47  and  C22_61
REMARK   17  A    between atoms: S1_51  and  O3_59
REMARK   18  A    between atoms: S1_52  and  O3_60
REMARK   19  A    between atoms: O3_59  and  O3_60
REMARK   20  A    between atoms: C22_61  and  C22_62
REMARK   21  A    between atoms: C22_62  and  C25_67
REMARK   22  A    between atoms: C23_63  and  N6_70
REMARK   23  A    between atoms: C23_64  and  C25_67
REMARK   24  A    between atoms: N6_69  and  C33_86
REMARK   25  A    between atoms: N6_69  and  N7_88
REMARK   26  A    between atoms: N6_70  and  C26_72
REMARK   27  A    between atoms: C26_71  and  C32_84
REMARK   28  A    between atoms: C26_71  and  C33_86
REMARK   29  A    between atoms: C27_73  and  C31_82
REMARK   30  A    between atoms: C27_73  and  C32_84
REMARK   31  A    between atoms: C27_74  and  C28_76
REMARK   32  A    between atoms: C28_75  and  C31_82
REMARK                            x       y       z     vdW  Elec       q    Type
REMARK                         _______ _______ _______ _____ _____    ______ ____
ROOT
ATOM      1  C1  YF6 A 201      13.018  14.845   5.499  0.00  0.00    +0.000 C 
ATOM      2  C2  YF6 A 201      14.177  15.507   5.686  0.00  0.00    +0.000 C 
ENDROOT
BRANCH   1   3
ATOM      3  C6  YF6 A 201      12.407  14.532   4.305  0.00  0.00    +0.000 C 
ATOM      4  C7  YF6 A 201      11.265  13.804   4.037  0.00  0.00    +0.000 C 
ENDBRANCH   1   3
TORSDOF 1
REMARK  Name = /Users/chinazoemeh/HopeMScP/data/ligands/BRD4-BD1_BRD4-BD1_32_7JKY/BRD4-BD1_BRD4-BD1_32_7JKY.pdb
REMARK  32 active torsions:
REMARK  status: ('A' for Active; 'I' for Inactive)
REMARK    1  A    between atoms: C1_1  and  C6_12
REMARK    2  A    between atoms: C3_6  and  C4_7
REMARK    3  A    between atoms: C4_7  and  N4_48
REMARK    4  A    between atoms: C5_9  and  C5_10
REMARK    5  A    between atoms: C9_18  and  N2_25
REMARK    6  A    between atoms: C10_19  and  N1_22
REMARK    7  A    between atoms: C12_28  and  C13_29
REMARK    8  A    between atoms: C13_29  and  C15_36
REMARK    9  A    between atoms: C13_30  and  C15_35
REMARK   10  A    between atoms: C14_31  and  N3_34
REMARK   11  A    between atoms: C14_31  and  C15_36
REMARK   12  A    between atoms: C14_32  and  N3_33
REMARK   13  A    between atoms: C14_32  and  C15_35
REMARK   14  A    between atoms: N3_33  and  N3_34
REMARK   15  A    between atoms: N4_47  and  N4_48
REMARK   16  A    between atoms: N4_47  and  C22_61
REMARK   17  A    between atoms: S1_51  and  O3_59
REMARK   18  A    between atoms: S1_52  and  O3_60
REMARK   19  A    between atoms: O3_59  and  O3_60
REMARK   20  A    between atoms: C22_61  and  C22_62
REMARK   21  A    between atoms: C22_62  and  C25_67
REMARK   22  A    between atoms: C23_63  and  N6_70
REMARK   23  A    between atoms: C23_64  and  C25_67
REMARK   24  A    between atoms: N6_69  and  C33_86
REMARK   25  A    between atoms: N6_69  and  N7_88
REMARK   26  A    between atoms: N6_70  and  C26_72
REMARK   27  A    between atoms: C26_71  and  C32_84
REMARK   28  A    between atoms: C26_71  and  C33_86
REMARK   29  A    between atoms: C27_73  and  C31_82
REMARK   30  A    between atoms: C27_73  and  C32_84
REMARK   31  A    between atoms: C27_74  and  C28_76
REMARK   32  A    between atoms: C28_75  and  C31_82
REMARK                            x       y       z     vdW  Elec       q    Type
REMARK                         _______ _______ _______ _____ _____    ______ ____
ROOT
ATOM      1  C1  YF6 A 201      12.959  14.810   5.560  0.00  0.00    +0.000 C 
ENDROOT
TORSDOF 0
REMARK  Name = /Users/chinazoemeh/HopeMScP/data/ligands/BRD4-BD1_BRD4-BD1_32_7JKY/BRD4-BD1_BRD4-BD1_32_7JKY.pdb
REMARK  32 active torsions:
REMARK  status: ('A' for Active; 'I' for Inactive)
REMARK    1  A    between atoms: C1_1  and  C6_12
REMARK    2  A    between atoms: C3_6  and  C4_7
REMARK    3  A    between atoms: C4_7  and  N4_48
REMARK    4  A    between atoms: C5_9  and  C5_10
REMARK    5  A    between atoms: C9_18  and  N2_25
REMARK    6  A    between atoms: C10_19  and  N1_22
REMARK    7  A    between atoms: C12_28  and  C13_29
REMARK    8  A    between atoms: C13_29  and  C15_36
REMARK    9  A    between atoms: C13_30  and  C15_35
REMARK   10  A    between atoms: C14_31  and  N3_34
REMARK   11  A    between atoms: C14_31  and  C15_36
REMARK   12  A    between atoms: C14_32  and  N3_33
REMARK   13  A    between atoms: C14_32  and  C15_35
REMARK   14  A    between atoms: N3_33  and  N3_34
REMARK   15  A    between atoms: N4_47  and  N4_48
REMARK   16  A    between atoms: N4_47  and  C22_61
REMARK   17  A    between atoms: S1_51  and  O3_59
REMARK   18  A    between atoms: S1_52  and  O3_60
REMARK   19  A    between atoms: O3_59  and  O3_60
REMARK   20  A    between atoms: C22_61  and  C22_62
REMARK   21  A    between atoms: C22_62  and  C25_67
REMARK   22  A    between atoms: C23_63  and  N6_70
REMARK   23  A    between atoms: C23_64  and  C25_67
REMARK   24  A    between atoms: N6_69  and  C33_86
REMARK   25  A    between atoms: N6_69  and  N7_88
REMARK   26  A    between atoms: N6_70  and  C26_72
REMARK   27  A    between atoms: C26_71  and  C32_84
REMARK   28  A    between atoms: C26_71  and  C33_86
REMARK   29  A    between atoms: C27_73  and  C31_82
REMARK   30  A    between atoms: C27_73  and  C32_84
REMARK   31  A    between atoms: C27_74  and  C28_76
REMARK   32  A    between atoms: C28_75  and  C31_82
REMARK                            x       y       z     vdW  Elec       q    Type
REMARK                         _______ _______ _______ _____ _____    ______ ____
ROOT
ATOM      1  C22 YF6 A 201      15.414  15.655   0.898  0.00  0.00    +0.000 C 
ENDROOT
BRANCH   1   3
ATOM      2  C19 YF6 A 201      16.166  16.704   2.870  0.00  0.00    +0.000 C 
ATOM      3  N4  YF6 A 201      15.527  15.787   2.350  0.00  0.00    +0.000 NA
BRANCH   3   4
ATOM      4  N4  YF6 A 201      15.101  16.084   2.272  0.00  0.00    +0.000 NA
BRANCH   4   5
ATOM      5  C4  YF6 A 201      14.573  15.362   3.283  0.00  0.00    +0.000 C 
BRANCH   5   7
ATOM      6  C2  YF6 A 201      14.196  15.590   5.669  0.00  0.00    +0.000 C 
ATOM      7  C3  YF6 A 201      14.864  15.892   4.509  0.00  0.00    +0.000 C 
ATOM      8  N5  YF6 A 201      14.639  16.098   6.900  0.00  0.00    +0.000 NA
ENDBRANCH   5   7
ENDBRANCH   4   5
ENDBRANCH   3   4
ENDBRANCH   1   3
BRANCH   1   9
ATOM      9  C22 YF6 A 201      14.851  15.918   0.857  0.00  0.00    +0.000 C 
BRANCH   9  10
ATOM     10  C25 YF6 A 201      14.365  16.638   0.291  0.00  0.00    +0.000 C 
BRANCH  10  11
ATOM     11  C23 YF6 A 201      13.527  16.659   0.543  0.00  0.00    +0.000 C 
ATOM     12  C30 YF6 A 201      14.242  16.788  -1.085  0.00  0.00    +0.000 C 
ATOM     13  C31 YF6 A 201      13.305  17.669  -1.606  0.00  0.00    +0.000 C 
ATOM     14  C32 YF6 A 201      12.463  18.343  -0.775  0.00  0.00    +0.000 C 
ATOM     15  C33 YF6 A 201      12.554  18.095   0.565  0.00  0.00    +0.000 C 
ATOM     16  N7  YF6 A 201      13.455  17.220   1.089  0.00  0.00    +0.000 NA
ENDBRANCH  10  11
ENDBRANCH   9  10
ENDBRANCH   1   9
TORSDOF 7
REMARK  Name = /Users/chinazoemeh/HopeMScP/data/ligands/BRD4-BD1_BRD4-BD1_32_7JKY/BRD4-BD1_BRD4-BD1_32_7JKY.pdb
REMARK  32 active torsions:
REMARK  status: ('A' for Active; 'I' for Inactive)
REMARK    1  A    between atoms: C1_1  and  C6_12
REMARK    2  A    between atoms: C3_6  and  C4_7
REMARK    3  A    between atoms: C4_7  and  N4_48
REMARK    4  A    between atoms: C5_9  and  C5_10
REMARK    5  A    between atoms: C9_18  and  N2_25
REMARK    6  A    between atoms: C10_19  and  N1_22
REMARK    7  A    between atoms: C12_28  and  C13_29
REMARK    8  A    between atoms: C13_29  and  C15_36
REMARK    9  A    between atoms: C13_30  and  C15_35
REMARK   10  A    between atoms: C14_31  and  N3_34
REMARK   11  A    between atoms: C14_31  and  C15_36
REMARK   12  A    between atoms: C14_32  and  N3_33
REMARK   13  A    between atoms: C14_32  and  C15_35
REMARK   14  A    between atoms: N3_33  and  N3_34
REMARK   15  A    between atoms: N4_47  and  N4_48
REMARK   16  A    between atoms: N4_47  and  C22_61
REMARK   17  A    between atoms: S1_51  and  O3_59
REMARK   18  A    between atoms: S1_52  and  O3_60
REMARK   19  A    between atoms: O3_59  and  O3_60
REMARK   20  A    between atoms: C22_61  and  C22_62
REMARK   21  A    between atoms: C22_62  and  C25_67
REMARK   22  A    between atoms: C23_63  and  N6_70
REMARK   23  A    between atoms: C23_64  and  C25_67
REMARK   24  A    between atoms: N6_69  and  C33_86
REMARK   25  A    between atoms: N6_69  and  N7_88
REMARK   26  A    between atoms: N6_70  and  C26_72
REMARK   27  A    between atoms: C26_71  and  C32_84
REMARK   28  A    between atoms: C26_71  and  C33_86
REMARK   29  A    between atoms: C27_73  and  C31_82
REMARK   30  A    between atoms: C27_73  and  C32_84
REMARK   31  A    between atoms: C27_74  and  C28_76
REMARK   32  A    between atoms: C28_75  and  C31_82
REMARK                            x       y       z     vdW  Elec       q    Type
REMARK                         _______ _______ _______ _____ _____    ______ ____
ROOT
ATOM      1  C3  YF6 A 201      14.986  15.857   4.531  0.00  0.00    +0.000 C 
ENDROOT
TORSDOF 0
REMARK  Name = /Users/chinazoemeh/HopeMScP/data/ligands/BRD4-BD1_BRD4-BD1_32_7JKY/BRD4-BD1_BRD4-BD1_32_7JKY.pdb
REMARK  32 active torsions:
REMARK  status: ('A' for Active; 'I' for Inactive)
REMARK    1  A    between atoms: C1_1  and  C6_12
REMARK    2  A    between atoms: C3_6  and  C4_7
REMARK    3  A    between atoms: C4_7  and  N4_48
REMARK    4  A    between atoms: C5_9  and  C5_10
REMARK    5  A    between atoms: C9_18  and  N2_25
REMARK    6  A    between atoms: C10_19  and  N1_22
REMARK    7  A    between atoms: C12_28  and  C13_29
REMARK    8  A    between atoms: C13_29  and  C15_36
REMARK    9  A    between atoms: C13_30  and  C15_35
REMARK   10  A    between atoms: C14_31  and  N3_34
REMARK   11  A    between atoms: C14_31  and  C15_36
REMARK   12  A    between atoms: C14_32  and  N3_33
REMARK   13  A    between atoms: C14_32  and  C15_35
REMARK   14  A    between atoms: N3_33  and  N3_34
REMARK   15  A    between atoms: N4_47  and  N4_48
REMARK   16  A    between atoms: N4_47  and  C22_61
REMARK   17  A    between atoms: S1_51  and  O3_59
REMARK   18  A    between atoms: S1_52  and  O3_60
REMARK   19  A    between atoms: O3_59  and  O3_60
REMARK   20  A    between atoms: C22_61  and  C22_62
REMARK   21  A    between atoms: C22_62  and  C25_67
REMARK   22  A    between atoms: C23_63  and  N6_70
REMARK   23  A    between atoms: C23_64  and  C25_67
REMARK   24  A    between atoms: N6_69  and  C33_86
REMARK   25  A    between atoms: N6_69  and  N7_88
REMARK   26  A    between atoms: N6_70  and  C26_72
REMARK   27  A    between atoms: C26_71  and  C32_84
REMARK   28  A    between atoms: C26_71  and  C33_86
REMARK   29  A    between atoms: C27_73  and  C31_82
REMARK   30  A    between atoms: C27_73  and  C32_84
REMARK   31  A    between atoms: C27_74  and  C28_76
REMARK   32  A    between atoms: C28_75  and  C31_82
REMARK                            x       y       z     vdW  Elec       q    Type
REMARK                         _______ _______ _______ _____ _____    ______ ____
ROOT
ATOM      1  C4  YF6 A 201      14.273  15.593   3.265  0.00  0.00    +0.000 C 
ATOM      2  C5  YF6 A 201      13.390  14.650   3.108  0.00  0.00    +0.000 C 
ENDROOT
BRANCH   2   3
ATOM      3  C5  YF6 A 201      13.078  14.905   3.153  0.00  0.00    +0.000 C 
ATOM      4  C6  YF6 A 201      12.609  14.405   4.240  0.00  0.00    +0.000 C 
ENDBRANCH   2   3
TORSDOF 1
REMARK  Name = /Users/chinazoemeh/HopeMScP/data/ligands/BRD4-BD1_BRD4-BD1_32_7JKY/BRD4-BD1_BRD4-BD1_32_7JKY.pdb
REMARK  32 active torsions:
REMARK  status: ('A' for Active; 'I' for Inactive)
REMARK    1  A    between atoms: C1_1  and  C6_12
REMARK    2  A    between atoms: C3_6  and  C4_7
REMARK    3  A    between atoms: C4_7  and  N4_48
REMARK    4  A    between atoms: C5_9  and  C5_10
REMARK    5  A    between atoms: C9_18  and  N2_25
REMARK    6  A    between atoms: C10_19  and  N1_22
REMARK    7  A    between atoms: C12_28  and  C13_29
REMARK    8  A    between atoms: C13_29  and  C15_36
REMARK    9  A    between atoms: C13_30  and  C15_35
REMARK   10  A    between atoms: C14_31  and  N3_34
REMARK   11  A    between atoms: C14_31  and  C15_36
REMARK   12  A    between atoms: C14_32  and  N3_33
REMARK   13  A    between atoms: C14_32  and  C15_35
REMARK   14  A    between atoms: N3_33  and  N3_34
REMARK   15  A    between atoms: N4_47  and  N4_48
REMARK   16  A    between atoms: N4_47  and  C22_61
REMARK   17  A    between atoms: S1_51  and  O3_59
REMARK   18  A    between atoms: S1_52  and  O3_60
REMARK   19  A    between atoms: O3_59  and  O3_60
REMARK   20  A    between atoms: C22_61  and  C22_62
REMARK   21  A    between atoms: C22_62  and  C25_67
REMARK   22  A    between atoms: C23_63  and  N6_70
REMARK   23  A    between atoms: C23_64  and  C25_67
REMARK   24  A    between atoms: N6_69  and  C33_86
REMARK   25  A    between atoms: N6_69  and  N7_88
REMARK   26  A    between atoms: N6_70  and  C26_72
REMARK   27  A    between atoms: C26_71  and  C32_84
REMARK   28  A    between atoms: C26_71  and  C33_86
REMARK   29  A    between atoms: C27_73  and  C31_82
REMARK   30  A    between atoms: C27_73  and  C32_84
REMARK   31  A    between atoms: C27_74  and  C28_76
REMARK   32  A    between atoms: C28_75  and  C31_82
REMARK                            x       y       z     vdW  Elec       q    Type
REMARK                         _______ _______ _______ _____ _____    ______ ____
ROOT
ATOM      1  C7  YF6 A 201      11.072  13.898   4.101  0.00  0.00    +0.000 C 
ATOM      2  C8  YF6 A 201      10.468  14.316   2.982  0.00  0.00    +0.000 C 
ATOM      3  C11 YF6 A 201      10.751  12.847   4.844  0.00  0.00    +0.000 C 
ENDROOT
TORSDOF 0
REMARK  Name = /Users/chinazoemeh/HopeMScP/data/ligands/BRD4-BD1_BRD4-BD1_32_7JKY/BRD4-BD1_BRD4-BD1_32_7JKY.pdb
REMARK  32 active torsions:
REMARK  status: ('A' for Active; 'I' for Inactive)
REMARK    1  A    between atoms: C1_1  and  C6_12
REMARK    2  A    between atoms: C3_6  and  C4_7
REMARK    3  A    between atoms: C4_7  and  N4_48
REMARK    4  A    between atoms: C5_9  and  C5_10
REMARK    5  A    between atoms: C9_18  and  N2_25
REMARK    6  A    between atoms: C10_19  and  N1_22
REMARK    7  A    between atoms: C12_28  and  C13_29
REMARK    8  A    between atoms: C13_29  and  C15_36
REMARK    9  A    between atoms: C13_30  and  C15_35
REMARK   10  A    between atoms: C14_31  and  N3_34
REMARK   11  A    between atoms: C14_31  and  C15_36
REMARK   12  A    between atoms: C14_32  and  N3_33
REMARK   13  A    between atoms: C14_32  and  C15_35
REMARK   14  A    between atoms: N3_33  and  N3_34
REMARK   15  A    between atoms: N4_47  and  N4_48
REMARK   16  A    between atoms: N4_47  and  C22_61
REMARK   17  A    between atoms: S1_51  and  O3_59
REMARK   18  A    between atoms: S1_52  and  O3_60
REMARK   19  A    between atoms: O3_59  and  O3_60
REMARK   20  A    between atoms: C22_61  and  C22_62
REMARK   21  A    between atoms: C22_62  and  C25_67
REMARK   22  A    between atoms: C23_63  and  N6_70
REMARK   23  A    between atoms: C23_64  and  C25_67
REMARK   24  A    between atoms: N6_69  and  C33_86
REMARK   25  A    between atoms: N6_69  and  N7_88
REMARK   26  A    between atoms: N6_70  and  C26_72
REMARK   27  A    between atoms: C26_71  and  C32_84
REMARK   28  A    between atoms: C26_71  and  C33_86
REMARK   29  A    between atoms: C27_73  and  C31_82
REMARK   30  A    between atoms: C27_73  and  C32_84
REMARK   31  A    between atoms: C27_74  and  C28_76
REMARK   32  A    between atoms: C28_75  and  C31_82
REMARK                            x       y       z     vdW  Elec       q    Type
REMARK                         _______ _______ _______ _____ _____    ______ ____
ROOT
ATOM      1  C8  YF6 A 201      10.292  14.308   3.002  0.00  0.00    +0.000 C 
ATOM      2  C9  YF6 A 201       9.201  13.809   2.732  0.00  0.00    +0.000 C 
ENDROOT
TORSDOF 0
REMARK  Name = /Users/chinazoemeh/HopeMScP/data/ligands/BRD4-BD1_BRD4-BD1_32_7JKY/BRD4-BD1_BRD4-BD1_32_7JKY.pdb
REMARK  32 active torsions:
REMARK  status: ('A' for Active; 'I' for Inactive)
REMARK    1  A    between atoms: C1_1  and  C6_12
REMARK    2  A    between atoms: C3_6  and  C4_7
REMARK    3  A    between atoms: C4_7  and  N4_48
REMARK    4  A    between atoms: C5_9  and  C5_10
REMARK    5  A    between atoms: C9_18  and  N2_25
REMARK    6  A    between atoms: C10_19  and  N1_22
REMARK    7  A    between atoms: C12_28  and  C13_29
REMARK    8  A    between atoms: C13_29  and  C15_36
REMARK    9  A    between atoms: C13_30  and  C15_35
REMARK   10  A    between atoms: C14_31  and  N3_34
REMARK   11  A    between atoms: C14_31  and  C15_36
REMARK   12  A    between atoms: C14_32  and  N3_33
REMARK   13  A    between atoms: C14_32  and  C15_35
REMARK   14  A    between atoms: N3_33  and  N3_34
REMARK   15  A    between atoms: N4_47  and  N4_48
REMARK   16  A    between atoms: N4_47  and  C22_61
REMARK   17  A    between atoms: S1_51  and  O3_59
REMARK   18  A    between atoms: S1_52  and  O3_60
REMARK   19  A    between atoms: O3_59  and  O3_60
REMARK   20  A    between atoms: C22_61  and  C22_62
REMARK   21  A    between atoms: C22_62  and  C25_67
REMARK   22  A    between atoms: C23_63  and  N6_70
REMARK   23  A    between atoms: C23_64  and  C25_67
REMARK   24  A    between atoms: N6_69  and  C33_86
REMARK   25  A    between atoms: N6_69  and  N7_88
REMARK   26  A    between atoms: N6_70  and  C26_72
REMARK   27  A    between atoms: C26_71  and  C32_84
REMARK   28  A    between atoms: C26_71  and  C33_86
REMARK   29  A    between atoms: C27_73  and  C31_82
REMARK   30  A    between atoms: C27_73  and  C32_84
REMARK   31  A    between atoms: C27_74  and  C28_76
REMARK   32  A    between atoms: C28_75  and  C31_82
REMARK                            x       y       z     vdW  Elec       q    Type
REMARK                         _______ _______ _______ _____ _____    ______ ____
ROOT
ATOM      1  C15 YF6 A 201       7.967  16.724  -1.114  0.00  0.00    +0.000 C 
ENDROOT
BRANCH   1   2
ATOM      2  C13 YF6 A 201       7.838  15.697  -0.236  0.00  0.00    +0.000 C 
ATOM      3  C16 YF6 A 201       7.553  15.887   0.081  0.00  0.00    +0.000 C 
BRANCH   2   5
ATOM      4  N2  YF6 A 201       8.389  14.315   1.727  0.00  0.00    +0.000 NA
ATOM      5  C12 YF6 A 201       8.723  15.225   0.776  0.00  0.00    +0.000 C 
BRANCH   4   6
ATOM      6  C9  YF6 A 201       9.044  13.754   2.763  0.00  0.00    +0.000 C 
ATOM      7  C10 YF6 A 201       8.659  12.771   3.560  0.00  0.00    +0.000 C 
BRANCH   7   8
ATOM      8  N1  YF6 A 201       9.305  12.407   4.688  0.00  0.00    +0.000 NA
ATOM      9  C17 YF6 A 201       9.027  11.224   5.442  0.00  0.00    +0.000 C 
ENDBRANCH   7   8
ENDBRANCH   4   6
ENDBRANCH   2   5
ENDBRANCH   1   2
BRANCH   1  10
ATOM     10  C14 YF6 A 201       8.427  16.465  -1.402  0.00  0.00    +0.000 C 
BRANCH  10  11
ATOM     11  N3  YF6 A 201       8.832  15.981  -2.036  0.00  0.00    +0.000 NA
BRANCH  11  12
ATOM     12  N3  YF6 A 201       9.256  15.608  -2.242  0.00  0.00    +0.000 NA
BRANCH  12  13
ATOM     13  C14 YF6 A 201      10.048  15.562  -1.336  0.00  0.00    +0.000 C 
BRANCH  13  14
ATOM     14  C15 YF6 A 201      10.395  15.050  -1.476  0.00  0.00    +0.000 C 
BRANCH  14  16
ATOM     15  C12 YF6 A 201       8.927  15.027   0.590  0.00  0.00    +0.000 C 
ATOM     16  C13 YF6 A 201       9.704  14.610  -0.208  0.00  0.00    +0.000 C 
ATOM     17  C16 YF6 A 201       9.868  14.216  -0.303  0.00  0.00    +0.000 C 
ENDBRANCH  14  16
ENDBRANCH  13  14
ENDBRANCH  12  13
ENDBRANCH  11  12
ENDBRANCH  10  11
ENDBRANCH   1  10
TORSDOF 10
REMARK  Name = /Users/chinazoemeh/HopeMScP/data/ligands/BRD4-BD1_BRD4-BD1_32_7JKY/BRD4-BD1_BRD4-BD1_32_7JKY.pdb
REMARK  32 active torsions:
REMARK  status: ('A' for Active; 'I' for Inactive)
REMARK    1  A    between atoms: C1_1  and  C6_12
REMARK    2  A    between atoms: C3_6  and  C4_7
REMARK    3  A    between atoms: C4_7  and  N4_48
REMARK    4  A    between atoms: C5_9  and  C5_10
REMARK    5  A    between atoms: C9_18  and  N2_25
REMARK    6  A    between atoms: C10_19  and  N1_22
REMARK    7  A    between atoms: C12_28  and  C13_29
REMARK    8  A    between atoms: C13_29  and  C15_36
REMARK    9  A    between atoms: C13_30  and  C15_35
REMARK   10  A    between atoms: C14_31  and  N3_34
REMARK   11  A    between atoms: C14_31  and  C15_36
REMARK   12  A    between atoms: C14_32  and  N3_33
REMARK   13  A    between atoms: C14_32  and  C15_35
REMARK   14  A    between atoms: N3_33  and  N3_34
REMARK   15  A    between atoms: N4_47  and  N4_48
REMARK   16  A    between atoms: N4_47  and  C22_61
REMARK   17  A    between atoms: S1_51  and  O3_59
REMARK   18  A    between atoms: S1_52  and  O3_60
REMARK   19  A    between atoms: O3_59  and  O3_60
REMARK   20  A    between atoms: C22_61  and  C22_62
REMARK   21  A    between atoms: C22_62  and  C25_67
REMARK   22  A    between atoms: C23_63  and  N6_70
REMARK   23  A    between atoms: C23_64  and  C25_67
REMARK   24  A    between atoms: N6_69  and  C33_86
REMARK   25  A    between atoms: N6_69  and  N7_88
REMARK   26  A    between atoms: N6_70  and  C26_72
REMARK   27  A    between atoms: C26_71  and  C32_84
REMARK   28  A    between atoms: C26_71  and  C33_86
REMARK   29  A    between atoms: C27_73  and  C31_82
REMARK   30  A    between atoms: C27_73  and  C32_84
REMARK   31  A    between atoms: C27_74  and  C28_76
REMARK   32  A    between atoms: C28_75  and  C31_82
REMARK                            x       y       z     vdW  Elec       q    Type
REMARK                         _______ _______ _______ _____ _____    ______ ____
ROOT
ATOM      1  C10 YF6 A 201       8.521  12.773   3.604  0.00  0.00    +0.000 C 
ATOM      2  O1  YF6 A 201       7.547  12.225   3.375  0.00  0.00    +0.000 OA
ENDROOT
TORSDOF 0
REMARK  Name = /Users/chinazoemeh/HopeMScP/data/ligands/BRD4-BD1_BRD4-BD1_32_7JKY/BRD4-BD1_BRD4-BD1_32_7JKY.pdb
REMARK  32 active torsions:
REMARK  status: ('A' for Active; 'I' for Inactive)
REMARK    1  A    between atoms: C1_1  and  C6_12
REMARK    2  A    between atoms: C3_6  and  C4_7
REMARK    3  A    between atoms: C4_7  and  N4_48
REMARK    4  A    between atoms: C5_9  and  C5_10
REMARK    5  A    between atoms: C9_18  and  N2_25
REMARK    6  A    between atoms: C10_19  and  N1_22
REMARK    7  A    between atoms: C12_28  and  C13_29
REMARK    8  A    between atoms: C13_29  and  C15_36
REMARK    9  A    between atoms: C13_30  and  C15_35
REMARK   10  A    between atoms: C14_31  and  N3_34
REMARK   11  A    between atoms: C14_31  and  C15_36
REMARK   12  A    between atoms: C14_32  and  N3_33
REMARK   13  A    between atoms: C14_32  and  C15_35
REMARK   14  A    between atoms: N3_33  and  N3_34
REMARK   15  A    between atoms: N4_47  and  N4_48
REMARK   16  A    between atoms: N4_47  and  C22_61
REMARK   17  A    between atoms: S1_51  and  O3_59
REMARK   18  A    between atoms: S1_52  and  O3_60
REMARK   19  A    between atoms: O3_59  and  O3_60
REMARK   20  A    between atoms: C22_61  and  C22_62
REMARK   21  A    between atoms: C22_62  and  C25_67
REMARK   22  A    between atoms: C23_63  and  N6_70
REMARK   23  A    between atoms: C23_64  and  C25_67
REMARK   24  A    between atoms: N6_69  and  C33_86
REMARK   25  A    between atoms: N6_69  and  N7_88
REMARK   26  A    between atoms: N6_70  and  C26_72
REMARK   27  A    between atoms: C26_71  and  C32_84
REMARK   28  A    between atoms: C26_71  and  C33_86
REMARK   29  A    between atoms: C27_73  and  C31_82
REMARK   30  A    between atoms: C27_73  and  C32_84
REMARK   31  A    between atoms: C27_74  and  C28_76
REMARK   32  A    between atoms: C28_75  and  C31_82
REMARK                            x       y       z     vdW  Elec       q    Type
REMARK                         _______ _______ _______ _____ _____    ______ ____
ROOT
ATOM      1  N1  YF6 A 201       9.494  12.316   4.585  0.00  0.00    +0.000 NA
ATOM      2  C11 YF6 A 201      10.561  12.970   4.947  0.00  0.00    +0.000 C 
ENDROOT
TORSDOF 0
REMARK  Name = /Users/chinazoemeh/HopeMScP/data/ligands/BRD4-BD1_BRD4-BD1_32_7JKY/BRD4-BD1_BRD4-BD1_32_7JKY.pdb
REMARK  32 active torsions:
REMARK  status: ('A' for Active; 'I' for Inactive)
REMARK    1  A    between atoms: C1_1  and  C6_12
REMARK    2  A    between atoms: C3_6  and  C4_7
REMARK    3  A    between atoms: C4_7  and  N4_48
REMARK    4  A    between atoms: C5_9  and  C5_10
REMARK    5  A    between atoms: C9_18  and  N2_25
REMARK    6  A    between atoms: C10_19  and  N1_22
REMARK    7  A    between atoms: C12_28  and  C13_29
REMARK    8  A    between atoms: C13_29  and  C15_36
REMARK    9  A    between atoms: C13_30  and  C15_35
REMARK   10  A    between atoms: C14_31  and  N3_34
REMARK   11  A    between atoms: C14_31  and  C15_36
REMARK   12  A    between atoms: C14_32  and  N3_33
REMARK   13  A    between atoms: C14_32  and  C15_35
REMARK   14  A    between atoms: N3_33  and  N3_34
REMARK   15  A    between atoms: N4_47  and  N4_48
REMARK   16  A    between atoms: N4_47  and  C22_61
REMARK   17  A    between atoms: S1_51  and  O3_59
REMARK   18  A    between atoms: S1_52  and  O3_60
REMARK   19  A    between atoms: O3_59  and  O3_60
REMARK   20  A    between atoms: C22_61  and  C22_62
REMARK   21  A    between atoms: C22_62  and  C25_67
REMARK   22  A    between atoms: C23_63  and  N6_70
REMARK   23  A    between atoms: C23_64  and  C25_67
REMARK   24  A    between atoms: N6_69  and  C33_86
REMARK   25  A    between atoms: N6_69  and  N7_88
REMARK   26  A    between atoms: N6_70  and  C26_72
REMARK   27  A    between atoms: C26_71  and  C32_84
REMARK   28  A    between atoms: C26_71  and  C33_86
REMARK   29  A    between atoms: C27_73  and  C31_82
REMARK   30  A    between atoms: C27_73  and  C32_84
REMARK   31  A    between atoms: C27_74  and  C28_76
REMARK   32  A    between atoms: C28_75  and  C31_82
REMARK                            x       y       z     vdW  Elec       q    Type
REMARK                         _______ _______ _______ _____ _____    ______ ____
ROOT
ATOM      1  N2  YF6 A 201       8.299  14.179   1.682  0.00  0.00    +0.000 NA
ENDROOT
TORSDOF 0
REMARK  Name = /Users/chinazoemeh/HopeMScP/data/ligands/BRD4-BD1_BRD4-BD1_32_7JKY/BRD4-BD1_BRD4-BD1_32_7JKY.pdb
REMARK  32 active torsions:
REMARK  status: ('A' for Active; 'I' for Inactive)
REMARK    1  A    between atoms: C1_1  and  C6_12
REMARK    2  A    between atoms: C3_6  and  C4_7
REMARK    3  A    between atoms: C4_7  and  N4_48
REMARK    4  A    between atoms: C5_9  and  C5_10
REMARK    5  A    between atoms: C9_18  and  N2_25
REMARK    6  A    between atoms: C10_19  and  N1_22
REMARK    7  A    between atoms: C12_28  and  C13_29
REMARK    8  A    between atoms: C13_29  and  C15_36
REMARK    9  A    between atoms: C13_30  and  C15_35
REMARK   10  A    between atoms: C14_31  and  N3_34
REMARK   11  A    between atoms: C14_31  and  C15_36
REMARK   12  A    between atoms: C14_32  and  N3_33
REMARK   13  A    between atoms: C14_32  and  C15_35
REMARK   14  A    between atoms: N3_33  and  N3_34
REMARK   15  A    between atoms: N4_47  and  N4_48
REMARK   16  A    between atoms: N4_47  and  C22_61
REMARK   17  A    between atoms: S1_51  and  O3_59
REMARK   18  A    between atoms: S1_52  and  O3_60
REMARK   19  A    between atoms: O3_59  and  O3_60
REMARK   20  A    between atoms: C22_61  and  C22_62
REMARK   21  A    between atoms: C22_62  and  C25_67
REMARK   22  A    between atoms: C23_63  and  N6_70
REMARK   23  A    between atoms: C23_64  and  C25_67
REMARK   24  A    between atoms: N6_69  and  C33_86
REMARK   25  A    between atoms: N6_69  and  N7_88
REMARK   26  A    between atoms: N6_70  and  C26_72
REMARK   27  A    between atoms: C26_71  and  C32_84
REMARK   28  A    between atoms: C26_71  and  C33_86
REMARK   29  A    between atoms: C27_73  and  C31_82
REMARK   30  A    between atoms: C27_73  and  C32_84
REMARK   31  A    between atoms: C27_74  and  C28_76
REMARK   32  A    between atoms: C28_75  and  C31_82
REMARK                            x       y       z     vdW  Elec       q    Type
REMARK                         _______ _______ _______ _____ _____    ______ ____
ROOT
ATOM      1  C17 YF6 A 201       8.774  11.391   5.602  0.00  0.00    +0.000 C 
ENDROOT
TORSDOF 0
REMARK  Name = /Users/chinazoemeh/HopeMScP/data/ligands/BRD4-BD1_BRD4-BD1_32_7JKY/BRD4-BD1_BRD4-BD1_32_7JKY.pdb
REMARK  32 active torsions:
REMARK  status: ('A' for Active; 'I' for Inactive)
REMARK    1  A    between atoms: C1_1  and  C6_12
REMARK    2  A    between atoms: C3_6  and  C4_7
REMARK    3  A    between atoms: C4_7  and  N4_48
REMARK    4  A    between atoms: C5_9  and  C5_10
REMARK    5  A    between atoms: C9_18  and  N2_25
REMARK    6  A    between atoms: C10_19  and  N1_22
REMARK    7  A    between atoms: C12_28  and  C13_29
REMARK    8  A    between atoms: C13_29  and  C15_36
REMARK    9  A    between atoms: C13_30  and  C15_35
REMARK   10  A    between atoms: C14_31  and  N3_34
REMARK   11  A    between atoms: C14_31  and  C15_36
REMARK   12  A    between atoms: C14_32  and  N3_33
REMARK   13  A    between atoms: C14_32  and  C15_35
REMARK   14  A    between atoms: N3_33  and  N3_34
REMARK   15  A    between atoms: N4_47  and  N4_48
REMARK   16  A    between atoms: N4_47  and  C22_61
REMARK   17  A    between atoms: S1_51  and  O3_59
REMARK   18  A    between atoms: S1_52  and  O3_60
REMARK   19  A    between atoms: O3_59  and  O3_60
REMARK   20  A    between atoms: C22_61  and  C22_62
REMARK   21  A    between atoms: C22_62  and  C25_67
REMARK   22  A    between atoms: C23_63  and  N6_70
REMARK   23  A    between atoms: C23_64  and  C25_67
REMARK   24  A    between atoms: N6_69  and  C33_86
REMARK   25  A    between atoms: N6_69  and  N7_88
REMARK   26  A    between atoms: N6_70  and  C26_72
REMARK   27  A    between atoms: C26_71  and  C32_84
REMARK   28  A    between atoms: C26_71  and  C33_86
REMARK   29  A    between atoms: C27_73  and  C31_82
REMARK   30  A    between atoms: C27_73  and  C32_84
REMARK   31  A    between atoms: C27_74  and  C28_76
REMARK   32  A    between atoms: C28_75  and  C31_82
REMARK                            x       y       z     vdW  Elec       q    Type
REMARK                         _______ _______ _______ _____ _____    ______ ____
ROOT
ATOM      1  O1  YF6 A 201       7.427  12.229   3.438  0.00  0.00    +0.000 OA
ENDROOT
TORSDOF 0
REMARK  Name = /Users/chinazoemeh/HopeMScP/data/ligands/BRD4-BD1_BRD4-BD1_32_7JKY/BRD4-BD1_BRD4-BD1_32_7JKY.pdb
REMARK  32 active torsions:
REMARK  status: ('A' for Active; 'I' for Inactive)
REMARK    1  A    between atoms: C1_1  and  C6_12
REMARK    2  A    between atoms: C3_6  and  C4_7
REMARK    3  A    between atoms: C4_7  and  N4_48
REMARK    4  A    between atoms: C5_9  and  C5_10
REMARK    5  A    between atoms: C9_18  and  N2_25
REMARK    6  A    between atoms: C10_19  and  N1_22
REMARK    7  A    between atoms: C12_28  and  C13_29
REMARK    8  A    between atoms: C13_29  and  C15_36
REMARK    9  A    between atoms: C13_30  and  C15_35
REMARK   10  A    between atoms: C14_31  and  N3_34
REMARK   11  A    between atoms: C14_31  and  C15_36
REMARK   12  A    between atoms: C14_32  and  N3_33
REMARK   13  A    between atoms: C14_32  and  C15_35
REMARK   14  A    between atoms: N3_33  and  N3_34
REMARK   15  A    between atoms: N4_47  and  N4_48
REMARK   16  A    between atoms: N4_47  and  C22_61
REMARK   17  A    between atoms: S1_51  and  O3_59
REMARK   18  A    between atoms: S1_52  and  O3_60
REMARK   19  A    between atoms: O3_59  and  O3_60
REMARK   20  A    between atoms: C22_61  and  C22_62
REMARK   21  A    between atoms: C22_62  and  C25_67
REMARK   22  A    between atoms: C23_63  and  N6_70
REMARK   23  A    between atoms: C23_64  and  C25_67
REMARK   24  A    between atoms: N6_69  and  C33_86
REMARK   25  A    between atoms: N6_69  and  N7_88
REMARK   26  A    between atoms: N6_70  and  C26_72
REMARK   27  A    between atoms: C26_71  and  C32_84
REMARK   28  A    between atoms: C26_71  and  C33_86
REMARK   29  A    between atoms: C27_73  and  C31_82
REMARK   30  A    between atoms: C27_73  and  C32_84
REMARK   31  A    between atoms: C27_74  and  C28_76
REMARK   32  A    between atoms: C28_75  and  C31_82
REMARK                            x       y       z     vdW  Elec       q    Type
REMARK                         _______ _______ _______ _____ _____    ______ ____
ROOT
ATOM      1  C18 YF6 A 201      16.195  16.619   4.330  0.00  0.00    +0.000 C 
ENDROOT
TORSDOF 0
REMARK  Name = /Users/chinazoemeh/HopeMScP/data/ligands/BRD4-BD1_BRD4-BD1_32_7JKY/BRD4-BD1_BRD4-BD1_32_7JKY.pdb
REMARK  32 active torsions:
REMARK  status: ('A' for Active; 'I' for Inactive)
REMARK    1  A    between atoms: C1_1  and  C6_12
REMARK    2  A    between atoms: C3_6  and  C4_7
REMARK    3  A    between atoms: C4_7  and  N4_48
REMARK    4  A    between atoms: C5_9  and  C5_10
REMARK    5  A    between atoms: C9_18  and  N2_25
REMARK    6  A    between atoms: C10_19  and  N1_22
REMARK    7  A    between atoms: C12_28  and  C13_29
REMARK    8  A    between atoms: C13_29  and  C15_36
REMARK    9  A    between atoms: C13_30  and  C15_35
REMARK   10  A    between atoms: C14_31  and  N3_34
REMARK   11  A    between atoms: C14_31  and  C15_36
REMARK   12  A    between atoms: C14_32  and  N3_33
REMARK   13  A    between atoms: C14_32  and  C15_35
REMARK   14  A    between atoms: N3_33  and  N3_34
REMARK   15  A    between atoms: N4_47  and  N4_48
REMARK   16  A    between atoms: N4_47  and  C22_61
REMARK   17  A    between atoms: S1_51  and  O3_59
REMARK   18  A    between atoms: S1_52  and  O3_60
REMARK   19  A    between atoms: O3_59  and  O3_60
REMARK   20  A    between atoms: C22_61  and  C22_62
REMARK   21  A    between atoms: C22_62  and  C25_67
REMARK   22  A    between atoms: C23_63  and  N6_70
REMARK   23  A    between atoms: C23_64  and  C25_67
REMARK   24  A    between atoms: N6_69  and  C33_86
REMARK   25  A    between atoms: N6_69  and  N7_88
REMARK   26  A    between atoms: N6_70  and  C26_72
REMARK   27  A    between atoms: C26_71  and  C32_84
REMARK   28  A    between atoms: C26_71  and  C33_86
REMARK   29  A    between atoms: C27_73  and  C31_82
REMARK   30  A    between atoms: C27_73  and  C32_84
REMARK   31  A    between atoms: C27_74  and  C28_76
REMARK   32  A    between atoms: C28_75  and  C31_82
REMARK                            x       y       z     vdW  Elec       q    Type
REMARK                         _______ _______ _______ _____ _____    ______ ____
ROOT
ATOM      1  C18 YF6 A 201      16.066  16.626   4.218  0.00  0.00    +0.000 C 
ATOM      2  C19 YF6 A 201      16.487  16.536   3.018  0.00  0.00    +0.000 C 
ENDROOT
TORSDOF 0
REMARK  Name = /Users/chinazoemeh/HopeMScP/data/ligands/BRD4-BD1_BRD4-BD1_32_7JKY/BRD4-BD1_BRD4-BD1_32_7JKY.pdb
REMARK  32 active torsions:
REMARK  status: ('A' for Active; 'I' for Inactive)
REMARK    1  A    between atoms: C1_1  and  C6_12
REMARK    2  A    between atoms: C3_6  and  C4_7
REMARK    3  A    between atoms: C4_7  and  N4_48
REMARK    4  A    between atoms: C5_9  and  C5_10
REMARK    5  A    between atoms: C9_18  and  N2_25
REMARK    6  A    between atoms: C10_19  and  N1_22
REMARK    7  A    between atoms: C12_28  and  C13_29
REMARK    8  A    between atoms: C13_29  and  C15_36
REMARK    9  A    between atoms: C13_30  and  C15_35
REMARK   10  A    between atoms: C14_31  and  N3_34
REMARK   11  A    between atoms: C14_31  and  C15_36
REMARK   12  A    between atoms: C14_32  and  N3_33
REMARK   13  A    between atoms: C14_32  and  C15_35
REMARK   14  A    between atoms: N3_33  and  N3_34
REMARK   15  A    between atoms: N4_47  and  N4_48
REMARK   16  A    between atoms: N4_47  and  C22_61
REMARK   17  A    between atoms: S1_51  and  O3_59
REMARK   18  A    between atoms: S1_52  and  O3_60
REMARK   19  A    between atoms: O3_59  and  O3_60
REMARK   20  A    between atoms: C22_61  and  C22_62
REMARK   21  A    between atoms: C22_62  and  C25_67
REMARK   22  A    between atoms: C23_63  and  N6_70
REMARK   23  A    between atoms: C23_64  and  C25_67
REMARK   24  A    between atoms: N6_69  and  C33_86
REMARK   25  A    between atoms: N6_69  and  N7_88
REMARK   26  A    between atoms: N6_70  and  C26_72
REMARK   27  A    between atoms: C26_71  and  C32_84
REMARK   28  A    between atoms: C26_71  and  C33_86
REMARK   29  A    between atoms: C27_73  and  C31_82
REMARK   30  A    between atoms: C27_73  and  C32_84
REMARK   31  A    between atoms: C27_74  and  C28_76
REMARK   32  A    between atoms: C28_75  and  C31_82
REMARK                            x       y       z     vdW  Elec       q    Type
REMARK                         _______ _______ _______ _____ _____    ______ ____
ROOT
ATOM      1  N5  YF6 A 201      14.740  15.758   6.981  0.00  0.00    +0.000 NA
ENDROOT
TORSDOF 0
REMARK  Name = /Users/chinazoemeh/HopeMScP/data/ligands/BRD4-BD1_BRD4-BD1_32_7JKY/BRD4-BD1_BRD4-BD1_32_7JKY.pdb
REMARK  32 active torsions:
REMARK  status: ('A' for Active; 'I' for Inactive)
REMARK    1  A    between atoms: C1_1  and  C6_12
REMARK    2  A    between atoms: C3_6  and  C4_7
REMARK    3  A    between atoms: C4_7  and  N4_48
REMARK    4  A    between atoms: C5_9  and  C5_10
REMARK    5  A    between atoms: C9_18  and  N2_25
REMARK    6  A    between atoms: C10_19  and  N1_22
REMARK    7  A    between atoms: C12_28  and  C13_29
REMARK    8  A    between atoms: C13_29  and  C15_36
REMARK    9  A    between atoms: C13_30  and  C15_35
REMARK   10  A    between atoms: C14_31  and  N3_34
REMARK   11  A    between atoms: C14_31  and  C15_36
REMARK   12  A    between atoms: C14_32  and  N3_33
REMARK   13  A    between atoms: C14_32  and  C15_35
REMARK   14  A    between atoms: N3_33  and  N3_34
REMARK   15  A    between atoms: N4_47  and  N4_48
REMARK   16  A    between atoms: N4_47  and  C22_61
REMARK   17  A    between atoms: S1_51  and  O3_59
REMARK   18  A    between atoms: S1_52  and  O3_60
REMARK   19  A    between atoms: O3_59  and  O3_60
REMARK   20  A    between atoms: C22_61  and  C22_62
REMARK   21  A    between atoms: C22_62  and  C25_67
REMARK   22  A    between atoms: C23_63  and  N6_70
REMARK   23  A    between atoms: C23_64  and  C25_67
REMARK   24  A    between atoms: N6_69  and  C33_86
REMARK   25  A    between atoms: N6_69  and  N7_88
REMARK   26  A    between atoms: N6_70  and  C26_72
REMARK   27  A    between atoms: C26_71  and  C32_84
REMARK   28  A    between atoms: C26_71  and  C33_86
REMARK   29  A    between atoms: C27_73  and  C31_82
REMARK   30  A    between atoms: C27_73  and  C32_84
REMARK   31  A    between atoms: C27_74  and  C28_76
REMARK   32  A    between atoms: C28_75  and  C31_82
REMARK                            x       y       z     vdW  Elec       q    Type
REMARK                         _______ _______ _______ _____ _____    ______ ____
ROOT
ATOM      1  O3  YF6 A 201      14.503  17.209   9.050  0.00  0.00    +0.000 OA
ENDROOT
BRANCH   1   2
ATOM      2  S1  YF6 A 201      13.745  16.329   8.216  0.00  0.00    +0.000 S 
ATOM      3  O2  YF6 A 201      12.610  16.516   7.936  0.00  0.00    +0.000 OA
ENDBRANCH   1   2
BRANCH   1   4
ATOM      4  O3  YF6 A 201      14.694  16.739   9.241  0.00  0.00    +0.000 OA
BRANCH   4   5
ATOM      5  S1  YF6 A 201      13.884  15.998   8.344  0.00  0.00    +0.000 S 
ATOM      6  C20 YF6 A 201      13.584  14.777   9.028  0.00  0.00    +0.000 C 
ENDBRANCH   4   5
ENDBRANCH   1   4
TORSDOF 3
REMARK  Name = /Users/chinazoemeh/HopeMScP/data/ligands/BRD4-BD1_BRD4-BD1_32_7JKY/BRD4-BD1_BRD4-BD1_32_7JKY.pdb
REMARK  32 active torsions:
REMARK  status: ('A' for Active; 'I' for Inactive)
REMARK    1  A    between atoms: C1_1  and  C6_12
REMARK    2  A    between atoms: C3_6  and  C4_7
REMARK    3  A    between atoms: C4_7  and  N4_48
REMARK    4  A    between atoms: C5_9  and  C5_10
REMARK    5  A    between atoms: C9_18  and  N2_25
REMARK    6  A    between atoms: C10_19  and  N1_22
REMARK    7  A    between atoms: C12_28  and  C13_29
REMARK    8  A    between atoms: C13_29  and  C15_36
REMARK    9  A    between atoms: C13_30  and  C15_35
REMARK   10  A    between atoms: C14_31  and  N3_34
REMARK   11  A    between atoms: C14_31  and  C15_36
REMARK   12  A    between atoms: C14_32  and  N3_33
REMARK   13  A    between atoms: C14_32  and  C15_35
REMARK   14  A    between atoms: N3_33  and  N3_34
REMARK   15  A    between atoms: N4_47  and  N4_48
REMARK   16  A    between atoms: N4_47  and  C22_61
REMARK   17  A    between atoms: S1_51  and  O3_59
REMARK   18  A    between atoms: S1_52  and  O3_60
REMARK   19  A    between atoms: O3_59  and  O3_60
REMARK   20  A    between atoms: C22_61  and  C22_62
REMARK   21  A    between atoms: C22_62  and  C25_67
REMARK   22  A    between atoms: C23_63  and  N6_70
REMARK   23  A    between atoms: C23_64  and  C25_67
REMARK   24  A    between atoms: N6_69  and  C33_86
REMARK   25  A    between atoms: N6_69  and  N7_88
REMARK   26  A    between atoms: N6_70  and  C26_72
REMARK   27  A    between atoms: C26_71  and  C32_84
REMARK   28  A    between atoms: C26_71  and  C33_86
REMARK   29  A    between atoms: C27_73  and  C31_82
REMARK   30  A    between atoms: C27_73  and  C32_84
REMARK   31  A    between atoms: C27_74  and  C28_76
REMARK   32  A    between atoms: C28_75  and  C31_82
REMARK                            x       y       z     vdW  Elec       q    Type
REMARK                         _______ _______ _______ _____ _____    ______ ____
ROOT
ATOM      1  C20 YF6 A 201      13.665  14.394   9.038  0.00  0.00    +0.000 C 
ATOM      2  C21 YF6 A 201      14.944  14.235   9.461  0.00  0.00    +0.000 C 
ATOM      3  C21 YF6 A 201      15.002  13.746   9.252  0.00  0.00    +0.000 C 
ENDROOT
TORSDOF 0
REMARK  Name = /Users/chinazoemeh/HopeMScP/data/ligands/BRD4-BD1_BRD4-BD1_32_7JKY/BRD4-BD1_BRD4-BD1_32_7JKY.pdb
REMARK  32 active torsions:
REMARK  status: ('A' for Active; 'I' for Inactive)
REMARK    1  A    between atoms: C1_1  and  C6_12
REMARK    2  A    between atoms: C3_6  and  C4_7
REMARK    3  A    between atoms: C4_7  and  N4_48
REMARK    4  A    between atoms: C5_9  and  C5_10
REMARK    5  A    between atoms: C9_18  and  N2_25
REMARK    6  A    between atoms: C10_19  and  N1_22
REMARK    7  A    between atoms: C12_28  and  C13_29
REMARK    8  A    between atoms: C13_29  and  C15_36
REMARK    9  A    between atoms: C13_30  and  C15_35
REMARK   10  A    between atoms: C14_31  and  N3_34
REMARK   11  A    between atoms: C14_31  and  C15_36
REMARK   12  A    between atoms: C14_32  and  N3_33
REMARK   13  A    between atoms: C14_32  and  C15_35
REMARK   14  A    between atoms: N3_33  and  N3_34
REMARK   15  A    between atoms: N4_47  and  N4_48
REMARK   16  A    between atoms: N4_47  and  C22_61
REMARK   17  A    between atoms: S1_51  and  O3_59
REMARK   18  A    between atoms: S1_52  and  O3_60
REMARK   19  A    between atoms: O3_59  and  O3_60
REMARK   20  A    between atoms: C22_61  and  C22_62
REMARK   21  A    between atoms: C22_62  and  C25_67
REMARK   22  A    between atoms: C23_63  and  N6_70
REMARK   23  A    between atoms: C23_64  and  C25_67
REMARK   24  A    between atoms: N6_69  and  C33_86
REMARK   25  A    between atoms: N6_69  and  N7_88
REMARK   26  A    between atoms: N6_70  and  C26_72
REMARK   27  A    between atoms: C26_71  and  C32_84
REMARK   28  A    between atoms: C26_71  and  C33_86
REMARK   29  A    between atoms: C27_73  and  C31_82
REMARK   30  A    between atoms: C27_73  and  C32_84
REMARK   31  A    between atoms: C27_74  and  C28_76
REMARK   32  A    between atoms: C28_75  and  C31_82
REMARK                            x       y       z     vdW  Elec       q    Type
REMARK                         _______ _______ _______ _____ _____    ______ ____
ROOT
ATOM      1  O2  YF6 A 201      12.409  16.757   7.867  0.00  0.00    +0.000 OA
ENDROOT
TORSDOF 0
REMARK  Name = /Users/chinazoemeh/HopeMScP/data/ligands/BRD4-BD1_BRD4-BD1_32_7JKY/BRD4-BD1_BRD4-BD1_32_7JKY.pdb
REMARK  32 active torsions:
REMARK  status: ('A' for Active; 'I' for Inactive)
REMARK    1  A    between atoms: C1_1  and  C6_12
REMARK    2  A    between atoms: C3_6  and  C4_7
REMARK    3  A    between atoms: C4_7  and  N4_48
REMARK    4  A    between atoms: C5_9  and  C5_10
REMARK    5  A    between atoms: C9_18  and  N2_25
REMARK    6  A    between atoms: C10_19  and  N1_22
REMARK    7  A    between atoms: C12_28  and  C13_29
REMARK    8  A    between atoms: C13_29  and  C15_36
REMARK    9  A    between atoms: C13_30  and  C15_35
REMARK   10  A    between atoms: C14_31  and  N3_34
REMARK   11  A    between atoms: C14_31  and  C15_36
REMARK   12  A    between atoms: C14_32  and  N3_33
REMARK   13  A    between atoms: C14_32  and  C15_35
REMARK   14  A    between atoms: N3_33  and  N3_34
REMARK   15  A    between atoms: N4_47  and  N4_48
REMARK   16  A    between atoms: N4_47  and  C22_61
REMARK   17  A    between atoms: S1_51  and  O3_59
REMARK   18  A    between atoms: S1_52  and  O3_60
REMARK   19  A    between atoms: O3_59  and  O3_60
REMARK   20  A    between atoms: C22_61  and  C22_62
REMARK   21  A    between atoms: C22_62  and  C25_67
REMARK   22  A    between atoms: C23_63  and  N6_70
REMARK   23  A    between atoms: C23_64  and  C25_67
REMARK   24  A    between atoms: N6_69  and  C33_86
REMARK   25  A    between atoms: N6_69  and  N7_88
REMARK   26  A    between atoms: N6_70  and  C26_72
REMARK   27  A    between atoms: C26_71  and  C32_84
REMARK   28  A    between atoms: C26_71  and  C33_86
REMARK   29  A    between atoms: C27_73  and  C31_82
REMARK   30  A    between atoms: C27_73  and  C32_84
REMARK   31  A    between atoms: C27_74  and  C28_76
REMARK   32  A    between atoms: C28_75  and  C31_82
REMARK                            x       y       z     vdW  Elec       q    Type
REMARK                         _______ _______ _______ _____ _____    ______ ____
ROOT
ATOM      1  C26 YF6 A 201      17.890  16.263  -1.158  0.00  0.00    +0.000 C 
ATOM      2  C27 YF6 A 201      18.020  17.622  -1.372  0.00  0.00    +0.000 C 
ENDROOT
BRANCH   2   3
ATOM      3  C28 YF6 A 201      17.082  18.465  -0.825  0.00  0.00    +0.000 C 
ATOM      4  C29 YF6 A 201      16.053  17.920  -0.101  0.00  0.00    +0.000 C 
ENDBRANCH   2   3
BRANCH   1   5
ATOM      5  N6  YF6 A 201      16.907  15.711  -0.433  0.00  0.00    +0.000 NA
BRANCH   5   6
ATOM      6  C23 YF6 A 201      16.828  15.859   0.274  0.00  0.00    +0.000 C 
ATOM      7  C24 YF6 A 201      16.007  16.549   0.071  0.00  0.00    +0.000 C 
ENDBRANCH   5   6
ENDBRANCH   1   5
TORSDOF 3
REMARK  Name = /Users/chinazoemeh/HopeMScP/data/ligands/BRD4-BD1_BRD4-BD1_32_7JKY/BRD4-BD1_BRD4-BD1_32_7JKY.pdb
REMARK  32 active torsions:
REMARK  status: ('A' for Active; 'I' for Inactive)
REMARK    1  A    between atoms: C1_1  and  C6_12
REMARK    2  A    between atoms: C3_6  and  C4_7
REMARK    3  A    between atoms: C4_7  and  N4_48
REMARK    4  A    between atoms: C5_9  and  C5_10
REMARK    5  A    between atoms: C9_18  and  N2_25
REMARK    6  A    between atoms: C10_19  and  N1_22
REMARK    7  A    between atoms: C12_28  and  C13_29
REMARK    8  A    between atoms: C13_29  and  C15_36
REMARK    9  A    between atoms: C13_30  and  C15_35
REMARK   10  A    between atoms: C14_31  and  N3_34
REMARK   11  A    between atoms: C14_31  and  C15_36
REMARK   12  A    between atoms: C14_32  and  N3_33
REMARK   13  A    between atoms: C14_32  and  C15_35
REMARK   14  A    between atoms: N3_33  and  N3_34
REMARK   15  A    between atoms: N4_47  and  N4_48
REMARK   16  A    between atoms: N4_47  and  C22_61
REMARK   17  A    between atoms: S1_51  and  O3_59
REMARK   18  A    between atoms: S1_52  and  O3_60
REMARK   19  A    between atoms: O3_59  and  O3_60
REMARK   20  A    between atoms: C22_61  and  C22_62
REMARK   21  A    between atoms: C22_62  and  C25_67
REMARK   22  A    between atoms: C23_63  and  N6_70
REMARK   23  A    between atoms: C23_64  and  C25_67
REMARK   24  A    between atoms: N6_69  and  C33_86
REMARK   25  A    between atoms: N6_69  and  N7_88
REMARK   26  A    between atoms: N6_70  and  C26_72
REMARK   27  A    between atoms: C26_71  and  C32_84
REMARK   28  A    between atoms: C26_71  and  C33_86
REMARK   29  A    between atoms: C27_73  and  C31_82
REMARK   30  A    between atoms: C27_73  and  C32_84
REMARK   31  A    between atoms: C27_74  and  C28_76
REMARK   32  A    between atoms: C28_75  and  C31_82
REMARK                            x       y       z     vdW  Elec       q    Type
REMARK                         _______ _______ _______ _____ _____    ______ ____
ROOT
ATOM      1  C26 YF6 A 201      15.119  11.937   0.625  0.00  0.00    +0.000 C 
ENDROOT
BRANCH   1   2
ATOM      2  C32 YF6 A 201      14.450  11.713  -0.031  0.00  0.00    +0.000 C 
BRANCH   2   3
ATOM      3  C27 YF6 A 201      14.183  11.802  -0.382  0.00  0.00    +0.000 C 
BRANCH   3   4
ATOM      4  C31 YF6 A 201      13.714  12.622  -0.729  0.00  0.00    +0.000 C 
BRANCH   4   5
ATOM      5  C28 YF6 A 201      13.712  12.955  -0.973  0.00  0.00    +0.000 C 
ATOM      6  C30 YF6 A 201      13.838  13.977  -0.464  0.00  0.00    +0.000 C 
ENDBRANCH   4   5
ENDBRANCH   3   4
ENDBRANCH   2   3
ENDBRANCH   1   2
BRANCH   1   7
ATOM      7  C33 YF6 A 201      15.303  12.191   0.915  0.00  0.00    +0.000 C 
BRANCH   7   8
ATOM      8  N6  YF6 A 201      15.515  13.161   1.040  0.00  0.00    +0.000 NA
BRANCH   8  10
ATOM      9  C24 YF6 A 201      14.971  14.253   0.476  0.00  0.00    +0.000 C 
ATOM     10  N7  YF6 A 201      15.392  13.504   1.243  0.00  0.00    +0.000 NA
ENDBRANCH   8  10
ENDBRANCH   7   8
ENDBRANCH   1   7
TORSDOF 7
REMARK  Name = /Users/chinazoemeh/HopeMScP/data/ligands/BRD4-BD1_BRD4-BD1_32_7JKY/BRD4-BD1_BRD4-BD1_32_7JKY.pdb
REMARK  32 active torsions:
REMARK  status: ('A' for Active; 'I' for Inactive)
REMARK    1  A    between atoms: C1_1  and  C6_12
REMARK    2  A    between atoms: C3_6  and  C4_7
REMARK    3  A    between atoms: C4_7  and  N4_48
REMARK    4  A    between atoms: C5_9  and  C5_10
REMARK    5  A    between atoms: C9_18  and  N2_25
REMARK    6  A    between atoms: C10_19  and  N1_22
REMARK    7  A    between atoms: C12_28  and  C13_29
REMARK    8  A    between atoms: C13_29  and  C15_36
REMARK    9  A    between atoms: C13_30  and  C15_35
REMARK   10  A    between atoms: C14_31  and  N3_34
REMARK   11  A    between atoms: C14_31  and  C15_36
REMARK   12  A    between atoms: C14_32  and  N3_33
REMARK   13  A    between atoms: C14_32  and  C15_35
REMARK   14  A    between atoms: N3_33  and  N3_34
REMARK   15  A    between atoms: N4_47  and  N4_48
REMARK   16  A    between atoms: N4_47  and  C22_61
REMARK   17  A    between atoms: S1_51  and  O3_59
REMARK   18  A    between atoms: S1_52  and  O3_60
REMARK   19  A    between atoms: O3_59  and  O3_60
REMARK   20  A    between atoms: C22_61  and  C22_62
REMARK   21  A    between atoms: C22_62  and  C25_67
REMARK   22  A    between atoms: C23_63  and  N6_70
REMARK   23  A    between atoms: C23_64  and  C25_67
REMARK   24  A    between atoms: N6_69  and  C33_86
REMARK   25  A    between atoms: N6_69  and  N7_88
REMARK   26  A    between atoms: N6_70  and  C26_72
REMARK   27  A    between atoms: C26_71  and  C32_84
REMARK   28  A    between atoms: C26_71  and  C33_86
REMARK   29  A    between atoms: C27_73  and  C31_82
REMARK   30  A    between atoms: C27_73  and  C32_84
REMARK   31  A    between atoms: C27_74  and  C28_76
REMARK   32  A    between atoms: C28_75  and  C31_82
REMARK                            x       y       z     vdW  Elec       q    Type
REMARK                         _______ _______ _______ _____ _____    ______ ____
ROOT
ATOM      1  C25 YF6 A 201      14.724  14.409   0.503  0.00  0.00    +0.000 C 
ATOM      2  C29 YF6 A 201      14.103  14.185  -0.544  0.00  0.00    +0.000 C 
ENDROOT
TORSDOF 0
