REMARK  Name = /Users/chinazoemeh/HopeMScP/data/ligands/BRD4-BD1_BRD4-BD1_7_7REK/BRD4-BD1_BRD4-BD1_7_7REK.pdb
REMARK  6 active torsions:
REMARK  status: ('A' for Active; 'I' for Inactive)
REMARK    1  A    between atoms: C1_1  and  C2_3
REMARK    2  A    between atoms: C1_5  and  C2_7
REMARK    3  A    between atoms: C1_9  and  C2_11
REMARK    4  A    between atoms: C1_13  and  C2_15
REMARK    5  A    between atoms: C1_17  and  C2_19
REMARK    6  A    between atoms: C1_21  and  C2_23
REMARK                            x       y       z     vdW  Elec       q    Type
REMARK                         _______ _______ _______ _____ _____    ______ ____
ROOT
ATOM      1  C1  EDO A 202     -14.709  -4.790 -20.218  0.00  0.00    +0.000 C 
ATOM      2  O1  EDO A 202     -13.634  -5.558 -19.641  0.00  0.00    +0.000 OA
ENDROOT
BRANCH   1   3
ATOM      3  C2  EDO A 202     -16.024  -5.563 -20.151  0.00  0.00    +0.000 C 
ATOM      4  O2  EDO A 202     -15.887  -6.787 -20.891  0.00  0.00    +0.000 OA
ENDBRANCH   1   3
TORSDOF 1
REMARK  Name = /Users/chinazoemeh/HopeMScP/data/ligands/BRD4-BD1_BRD4-BD1_7_7REK/BRD4-BD1_BRD4-BD1_7_7REK.pdb
REMARK  6 active torsions:
REMARK  status: ('A' for Active; 'I' for Inactive)
REMARK    1  A    between atoms: C1_1  and  C2_3
REMARK    2  A    between atoms: C1_5  and  C2_7
REMARK    3  A    between atoms: C1_9  and  C2_11
REMARK    4  A    between atoms: C1_13  and  C2_15
REMARK    5  A    between atoms: C1_17  and  C2_19
REMARK    6  A    between atoms: C1_21  and  C2_23
REMARK                            x       y       z     vdW  Elec       q    Type
REMARK                         _______ _______ _______ _____ _____    ______ ____
ROOT
ATOM      1  C1  EDO A 203     -15.012  -6.303  -2.380  0.00  0.00    +0.000 C 
ATOM      2  O1  EDO A 203     -15.790  -5.132  -2.286  0.00  0.00    +0.000 OA
ENDROOT
BRANCH   1   3
ATOM      3  C2  EDO A 203     -15.650  -7.537  -1.869  0.00  0.00    +0.000 C 
ATOM      4  O2  EDO A 203     -16.335  -7.348  -0.654  0.00  0.00    +0.000 OA
ENDBRANCH   1   3
TORSDOF 1
REMARK  Name = /Users/chinazoemeh/HopeMScP/data/ligands/BRD4-BD1_BRD4-BD1_7_7REK/BRD4-BD1_BRD4-BD1_7_7REK.pdb
REMARK  6 active torsions:
REMARK  status: ('A' for Active; 'I' for Inactive)
REMARK    1  A    between atoms: C1_1  and  C2_3
REMARK    2  A    between atoms: C1_5  and  C2_7
REMARK    3  A    between atoms: C1_9  and  C2_11
REMARK    4  A    between atoms: C1_13  and  C2_15
REMARK    5  A    between atoms: C1_17  and  C2_19
REMARK    6  A    between atoms: C1_21  and  C2_23
REMARK                            x       y       z     vdW  Elec       q    Type
REMARK                         _______ _______ _______ _____ _____    ______ ____
ROOT
ATOM      1  C1  EDO A 204       7.875   1.870 -11.760  0.00  0.00    +0.000 C 
ATOM      2  O1  EDO A 204       9.225   1.489 -11.853  0.00  0.00    +0.000 OA
ENDROOT
BRANCH   1   3
ATOM      3  C2  EDO A 204       7.704   3.268 -11.327  0.00  0.00    +0.000 C 
ATOM      4  O2  EDO A 204       8.752   3.699 -10.496  0.00  0.00    +0.000 OA
ENDBRANCH   1   3
TORSDOF 1
REMARK  Name = /Users/chinazoemeh/HopeMScP/data/ligands/BRD4-BD1_BRD4-BD1_7_7REK/BRD4-BD1_BRD4-BD1_7_7REK.pdb
REMARK  6 active torsions:
REMARK  status: ('A' for Active; 'I' for Inactive)
REMARK    1  A    between atoms: C1_1  and  C2_3
REMARK    2  A    between atoms: C1_5  and  C2_7
REMARK    3  A    between atoms: C1_9  and  C2_11
REMARK    4  A    between atoms: C1_13  and  C2_15
REMARK    5  A    between atoms: C1_17  and  C2_19
REMARK    6  A    between atoms: C1_21  and  C2_23
REMARK                            x       y       z     vdW  Elec       q    Type
REMARK                         _______ _______ _______ _____ _____    ______ ____
ROOT
ATOM      1  C1  EDO B 202      10.979  15.445 -34.623  0.00  0.00    +0.000 C 
ATOM      2  O1  EDO B 202       9.875  14.678 -35.158  0.00  0.00    +0.000 OA
ENDROOT
BRANCH   1   3
ATOM      3  C2  EDO B 202      12.248  14.615 -34.705  0.00  0.00    +0.000 C 
ATOM      4  O2  EDO B 202      12.122  13.531 -33.773  0.00  0.00    +0.000 OA
ENDBRANCH   1   3
TORSDOF 1
REMARK  Name = /Users/chinazoemeh/HopeMScP/data/ligands/BRD4-BD1_BRD4-BD1_7_7REK/BRD4-BD1_BRD4-BD1_7_7REK.pdb
REMARK  6 active torsions:
REMARK  status: ('A' for Active; 'I' for Inactive)
REMARK    1  A    between atoms: C1_1  and  C2_3
REMARK    2  A    between atoms: C1_5  and  C2_7
REMARK    3  A    between atoms: C1_9  and  C2_11
REMARK    4  A    between atoms: C1_13  and  C2_15
REMARK    5  A    between atoms: C1_17  and  C2_19
REMARK    6  A    between atoms: C1_21  and  C2_23
REMARK                            x       y       z     vdW  Elec       q    Type
REMARK                         _______ _______ _______ _____ _____    ______ ____
ROOT
ATOM      1  C1  EDO B 203      -7.088  31.041 -28.099  0.00  0.00    +0.000 C 
ATOM      2  O1  EDO B 203      -7.519  31.717 -29.295  0.00  0.00    +0.000 OA
ENDROOT
BRANCH   1   3
ATOM      3  C2  EDO B 203      -5.881  31.788 -27.555  0.00  0.00    +0.000 C 
ATOM      4  O2  EDO B 203      -4.861  31.741 -28.555  0.00  0.00    +0.000 OA
ENDBRANCH   1   3
TORSDOF 1
REMARK  Name = /Users/chinazoemeh/HopeMScP/data/ligands/BRD4-BD1_BRD4-BD1_7_7REK/BRD4-BD1_BRD4-BD1_7_7REK.pdb
REMARK  6 active torsions:
REMARK  status: ('A' for Active; 'I' for Inactive)
REMARK    1  A    between atoms: C1_1  and  C2_3
REMARK    2  A    between atoms: C1_5  and  C2_7
REMARK    3  A    between atoms: C1_9  and  C2_11
REMARK    4  A    between atoms: C1_13  and  C2_15
REMARK    5  A    between atoms: C1_17  and  C2_19
REMARK    6  A    between atoms: C1_21  and  C2_23
REMARK                            x       y       z     vdW  Elec       q    Type
REMARK                         _______ _______ _______ _____ _____    ______ ____
ROOT
ATOM      1  C1  EDO B 204       9.012  22.276 -55.827  0.00  0.00    +0.000 C 
ATOM      2  O1  EDO B 204       8.996  23.163 -56.956  0.00  0.00    +0.000 OA
ENDROOT
BRANCH   1   3
ATOM      3  C2  EDO B 204       9.832  21.039 -56.188  0.00  0.00    +0.000 C 
ATOM      4  O2  EDO B 204      11.165  21.420 -56.518  0.00  0.00    +0.000 OA
ENDBRANCH   1   3
TORSDOF 1
