REMARK  Name = /Users/chinazoemeh/HopeMScP/data/ligands/BRD4-BD1_BRD4-BD1_78_6XUZ/BRD4-BD1_BRD4-BD1_78_6XUZ.pdb
REMARK  2 active torsions:
REMARK  status: ('A' for Active; 'I' for Inactive)
REMARK    1  A    between atoms: C28_18  and  O29_68
REMARK    2  A    between atoms: C30_39  and  C34_46
REMARK                            x       y       z     vdW  Elec       q    Type
REMARK                         _______ _______ _______ _____ _____    ______ ____
ROOT
ATOM      1  C6  O1W A 201       5.905   9.307  20.694  0.00  0.00    +0.000 C 
ENDROOT
TORSDOF 0
REMARK  Name = /Users/chinazoemeh/HopeMScP/data/ligands/BRD4-BD1_BRD4-BD1_78_6XUZ/BRD4-BD1_BRD4-BD1_78_6XUZ.pdb
REMARK  2 active torsions:
REMARK  status: ('A' for Active; 'I' for Inactive)
REMARK    1  A    between atoms: C28_18  and  O29_68
REMARK    2  A    between atoms: C30_39  and  C34_46
REMARK                            x       y       z     vdW  Elec       q    Type
REMARK                         _______ _______ _______ _____ _____    ______ ____
ROOT
ATOM      1  C6  O1W A 201       5.907   9.307  20.692  0.00  0.00    +0.000 C 
ENDROOT
TORSDOF 0
REMARK  Name = /Users/chinazoemeh/HopeMScP/data/ligands/BRD4-BD1_BRD4-BD1_78_6XUZ/BRD4-BD1_BRD4-BD1_78_6XUZ.pdb
REMARK  2 active torsions:
REMARK  status: ('A' for Active; 'I' for Inactive)
REMARK    1  A    between atoms: C28_18  and  O29_68
REMARK    2  A    between atoms: C30_39  and  C34_46
REMARK                            x       y       z     vdW  Elec       q    Type
REMARK                         _______ _______ _______ _____ _____    ______ ____
ROOT
ATOM      1  C8  O1W A 201       5.834  11.646  21.310  0.00  0.00    +0.000 C 
ATOM      2  N12 O1W A 201       6.412  12.775  20.943  0.00  0.00    +0.000 NA
ENDROOT
TORSDOF 0
REMARK  Name = /Users/chinazoemeh/HopeMScP/data/ligands/BRD4-BD1_BRD4-BD1_78_6XUZ/BRD4-BD1_BRD4-BD1_78_6XUZ.pdb
REMARK  2 active torsions:
REMARK  status: ('A' for Active; 'I' for Inactive)
REMARK    1  A    between atoms: C28_18  and  O29_68
REMARK    2  A    between atoms: C30_39  and  C34_46
REMARK                            x       y       z     vdW  Elec       q    Type
REMARK                         _______ _______ _______ _____ _____    ______ ____
ROOT
ATOM      1  C8  O1W A 201       5.832  11.645  21.307  0.00  0.00    +0.000 C 
ENDROOT
TORSDOF 0
REMARK  Name = /Users/chinazoemeh/HopeMScP/data/ligands/BRD4-BD1_BRD4-BD1_78_6XUZ/BRD4-BD1_BRD4-BD1_78_6XUZ.pdb
REMARK  2 active torsions:
REMARK  status: ('A' for Active; 'I' for Inactive)
REMARK    1  A    between atoms: C28_18  and  O29_68
REMARK    2  A    between atoms: C30_39  and  C34_46
REMARK                            x       y       z     vdW  Elec       q    Type
REMARK                         _______ _______ _______ _____ _____    ______ ____
ROOT
ATOM      1  N12 O1W A 201       6.414  12.776  20.945  0.00  0.00    +0.000 NA
ATOM      2  N13 O1W A 201       7.324  12.461  19.933  0.00  0.00    +0.000 NA
ENDROOT
TORSDOF 0
REMARK  Name = /Users/chinazoemeh/HopeMScP/data/ligands/BRD4-BD1_BRD4-BD1_78_6XUZ/BRD4-BD1_BRD4-BD1_78_6XUZ.pdb
REMARK  2 active torsions:
REMARK  status: ('A' for Active; 'I' for Inactive)
REMARK    1  A    between atoms: C28_18  and  O29_68
REMARK    2  A    between atoms: C30_39  and  C34_46
REMARK                            x       y       z     vdW  Elec       q    Type
REMARK                         _______ _______ _______ _____ _____    ______ ____
ROOT
ATOM      1  C15 O1W A 201       7.994  10.426  18.652  0.00  0.00    +0.000 C 
ENDROOT
TORSDOF 0
REMARK  Name = /Users/chinazoemeh/HopeMScP/data/ligands/BRD4-BD1_BRD4-BD1_78_6XUZ/BRD4-BD1_BRD4-BD1_78_6XUZ.pdb
REMARK  2 active torsions:
REMARK  status: ('A' for Active; 'I' for Inactive)
REMARK    1  A    between atoms: C28_18  and  O29_68
REMARK    2  A    between atoms: C30_39  and  C34_46
REMARK                            x       y       z     vdW  Elec       q    Type
REMARK                         _______ _______ _______ _____ _____    ______ ____
ROOT
ATOM      1  C15 O1W A 201       7.996  10.425  18.652  0.00  0.00    +0.000 C 
ENDROOT
TORSDOF 0
REMARK  Name = /Users/chinazoemeh/HopeMScP/data/ligands/BRD4-BD1_BRD4-BD1_78_6XUZ/BRD4-BD1_BRD4-BD1_78_6XUZ.pdb
REMARK  2 active torsions:
REMARK  status: ('A' for Active; 'I' for Inactive)
REMARK    1  A    between atoms: C28_18  and  O29_68
REMARK    2  A    between atoms: C30_39  and  C34_46
REMARK                            x       y       z     vdW  Elec       q    Type
REMARK                         _______ _______ _______ _____ _____    ______ ____
ROOT
ATOM      1  C17 O1W A 201       3.515   5.828  22.584  0.00  0.00    +0.000 C 
ENDROOT
TORSDOF 0
REMARK  Name = /Users/chinazoemeh/HopeMScP/data/ligands/BRD4-BD1_BRD4-BD1_78_6XUZ/BRD4-BD1_BRD4-BD1_78_6XUZ.pdb
REMARK  2 active torsions:
REMARK  status: ('A' for Active; 'I' for Inactive)
REMARK    1  A    between atoms: C28_18  and  O29_68
REMARK    2  A    between atoms: C30_39  and  C34_46
REMARK                            x       y       z     vdW  Elec       q    Type
REMARK                         _______ _______ _______ _____ _____    ______ ____
ROOT
ATOM      1  C17 O1W A 201       3.525   5.837  22.578  0.00  0.00    +0.000 C 
ATOM      2  N5  O1W A 201       3.879   7.132  22.925  0.00  0.00    +0.000 NA
ENDROOT
TORSDOF 0
REMARK  Name = /Users/chinazoemeh/HopeMScP/data/ligands/BRD4-BD1_BRD4-BD1_78_6XUZ/BRD4-BD1_BRD4-BD1_78_6XUZ.pdb
REMARK  2 active torsions:
REMARK  status: ('A' for Active; 'I' for Inactive)
REMARK    1  A    between atoms: C28_18  and  O29_68
REMARK    2  A    between atoms: C30_39  and  C34_46
REMARK                            x       y       z     vdW  Elec       q    Type
REMARK                         _______ _______ _______ _____ _____    ______ ____
ROOT
ATOM      1  C21 O1W A 201       2.882   4.823  23.300  0.00  0.00    +0.000 C 
ENDROOT
TORSDOF 0
REMARK  Name = /Users/chinazoemeh/HopeMScP/data/ligands/BRD4-BD1_BRD4-BD1_78_6XUZ/BRD4-BD1_BRD4-BD1_78_6XUZ.pdb
REMARK  2 active torsions:
REMARK  status: ('A' for Active; 'I' for Inactive)
REMARK    1  A    between atoms: C28_18  and  O29_68
REMARK    2  A    between atoms: C30_39  and  C34_46
REMARK                            x       y       z     vdW  Elec       q    Type
REMARK                         _______ _______ _______ _____ _____    ______ ____
ROOT
ATOM      1  C21 O1W A 201       2.901   4.841  23.303  0.00  0.00    +0.000 C 
ENDROOT
TORSDOF 0
REMARK  Name = /Users/chinazoemeh/HopeMScP/data/ligands/BRD4-BD1_BRD4-BD1_78_6XUZ/BRD4-BD1_BRD4-BD1_78_6XUZ.pdb
REMARK  2 active torsions:
REMARK  status: ('A' for Active; 'I' for Inactive)
REMARK    1  A    between atoms: C28_18  and  O29_68
REMARK    2  A    between atoms: C30_39  and  C34_46
REMARK                            x       y       z     vdW  Elec       q    Type
REMARK                         _______ _______ _______ _____ _____    ______ ____
ROOT
ATOM      1  C22 O1W A 201       4.674   7.179  25.263  0.00  0.00    +0.000 C 
ENDROOT
TORSDOF 0
REMARK  Name = /Users/chinazoemeh/HopeMScP/data/ligands/BRD4-BD1_BRD4-BD1_78_6XUZ/BRD4-BD1_BRD4-BD1_78_6XUZ.pdb
REMARK  2 active torsions:
REMARK  status: ('A' for Active; 'I' for Inactive)
REMARK    1  A    between atoms: C28_18  and  O29_68
REMARK    2  A    between atoms: C30_39  and  C34_46
REMARK                            x       y       z     vdW  Elec       q    Type
REMARK                         _______ _______ _______ _____ _____    ______ ____
ROOT
ATOM      1  C22 O1W A 201       4.676   7.177  25.259  0.00  0.00    +0.000 C 
ENDROOT
TORSDOF 0
REMARK  Name = /Users/chinazoemeh/HopeMScP/data/ligands/BRD4-BD1_BRD4-BD1_78_6XUZ/BRD4-BD1_BRD4-BD1_78_6XUZ.pdb
REMARK  2 active torsions:
REMARK  status: ('A' for Active; 'I' for Inactive)
REMARK    1  A    between atoms: C28_18  and  O29_68
REMARK    2  A    between atoms: C30_39  and  C34_46
REMARK                            x       y       z     vdW  Elec       q    Type
REMARK                         _______ _______ _______ _____ _____    ______ ____
ROOT
ATOM      1  C24 O1W A 201       4.189  11.434  25.353  0.00  0.00    +0.000 C 
ENDROOT
TORSDOF 0
REMARK  Name = /Users/chinazoemeh/HopeMScP/data/ligands/BRD4-BD1_BRD4-BD1_78_6XUZ/BRD4-BD1_BRD4-BD1_78_6XUZ.pdb
REMARK  2 active torsions:
REMARK  status: ('A' for Active; 'I' for Inactive)
REMARK    1  A    between atoms: C28_18  and  O29_68
REMARK    2  A    between atoms: C30_39  and  C34_46
REMARK                            x       y       z     vdW  Elec       q    Type
REMARK                         _______ _______ _______ _____ _____    ______ ____
ROOT
ATOM      1  C24 O1W A 201       4.191  11.435  25.352  0.00  0.00    +0.000 C 
ENDROOT
TORSDOF 0
REMARK  Name = /Users/chinazoemeh/HopeMScP/data/ligands/BRD4-BD1_BRD4-BD1_78_6XUZ/BRD4-BD1_BRD4-BD1_78_6XUZ.pdb
REMARK  2 active torsions:
REMARK  status: ('A' for Active; 'I' for Inactive)
REMARK    1  A    between atoms: C28_18  and  O29_68
REMARK    2  A    between atoms: C30_39  and  C34_46
REMARK                            x       y       z     vdW  Elec       q    Type
REMARK                         _______ _______ _______ _____ _____    ______ ____
ROOT
ATOM      1  C28 O1W A 201       0.584   1.576  21.619  0.00  0.00    +0.000 C 
ENDROOT
TORSDOF 0
REMARK  Name = /Users/chinazoemeh/HopeMScP/data/ligands/BRD4-BD1_BRD4-BD1_78_6XUZ/BRD4-BD1_BRD4-BD1_78_6XUZ.pdb
REMARK  2 active torsions:
REMARK  status: ('A' for Active; 'I' for Inactive)
REMARK    1  A    between atoms: C28_18  and  O29_68
REMARK    2  A    between atoms: C30_39  and  C34_46
REMARK                            x       y       z     vdW  Elec       q    Type
REMARK                         _______ _______ _______ _____ _____    ______ ____
ROOT
ATOM      1  C28 O1W A 201       1.028   1.638  25.245  0.00  0.00    +0.000 C 
ATOM      2  O29 O1W A 201       0.664   0.497  24.491  0.00  0.00    +0.000 OA
ATOM      3  H64 O1W A 201       0.736   0.099  23.999  0.00  0.00    +0.000 HD
ENDROOT
TORSDOF 0
REMARK  Name = /Users/chinazoemeh/HopeMScP/data/ligands/BRD4-BD1_BRD4-BD1_78_6XUZ/BRD4-BD1_BRD4-BD1_78_6XUZ.pdb
REMARK  2 active torsions:
REMARK  status: ('A' for Active; 'I' for Inactive)
REMARK    1  A    between atoms: C28_18  and  O29_68
REMARK    2  A    between atoms: C30_39  and  C34_46
REMARK                            x       y       z     vdW  Elec       q    Type
REMARK                         _______ _______ _______ _____ _____    ______ ____
ROOT
ATOM      1  C1  O1W A 201       2.635   3.628  22.620  0.00  0.00    +0.000 C 
ATOM      2  N20 O1W A 201       3.011   3.444  21.357  0.00  0.00    +0.000 NA
ENDROOT
TORSDOF 0
REMARK  Name = /Users/chinazoemeh/HopeMScP/data/ligands/BRD4-BD1_BRD4-BD1_78_6XUZ/BRD4-BD1_BRD4-BD1_78_6XUZ.pdb
REMARK  2 active torsions:
REMARK  status: ('A' for Active; 'I' for Inactive)
REMARK    1  A    between atoms: C28_18  and  O29_68
REMARK    2  A    between atoms: C30_39  and  C34_46
REMARK                            x       y       z     vdW  Elec       q    Type
REMARK                         _______ _______ _______ _____ _____    ______ ____
ROOT
ATOM      1  C1  O1W A 201       2.650   3.643  22.633  0.00  0.00    +0.000 C 
ENDROOT
TORSDOF 0
REMARK  Name = /Users/chinazoemeh/HopeMScP/data/ligands/BRD4-BD1_BRD4-BD1_78_6XUZ/BRD4-BD1_BRD4-BD1_78_6XUZ.pdb
REMARK  2 active torsions:
REMARK  status: ('A' for Active; 'I' for Inactive)
REMARK    1  A    between atoms: C28_18  and  O29_68
REMARK    2  A    between atoms: C30_39  and  C34_46
REMARK                            x       y       z     vdW  Elec       q    Type
REMARK                         _______ _______ _______ _____ _____    ______ ____
ROOT
ATOM      1  C14 O1W A 201       7.237  11.179  19.681  0.00  0.00    +0.000 C 
ATOM      2  N13 O1W A 201       7.328  12.459  19.935  0.00  0.00    +0.000 NA
ENDROOT
TORSDOF 0
REMARK  Name = /Users/chinazoemeh/HopeMScP/data/ligands/BRD4-BD1_BRD4-BD1_78_6XUZ/BRD4-BD1_BRD4-BD1_78_6XUZ.pdb
REMARK  2 active torsions:
REMARK  status: ('A' for Active; 'I' for Inactive)
REMARK    1  A    between atoms: C28_18  and  O29_68
REMARK    2  A    between atoms: C30_39  and  C34_46
REMARK                            x       y       z     vdW  Elec       q    Type
REMARK                         _______ _______ _______ _____ _____    ______ ____
ROOT
ATOM      1  C14 O1W A 201       7.239  11.177  19.681  0.00  0.00    +0.000 C 
ENDROOT
TORSDOF 0
REMARK  Name = /Users/chinazoemeh/HopeMScP/data/ligands/BRD4-BD1_BRD4-BD1_78_6XUZ/BRD4-BD1_BRD4-BD1_78_6XUZ.pdb
REMARK  2 active torsions:
REMARK  status: ('A' for Active; 'I' for Inactive)
REMARK    1  A    between atoms: C28_18  and  O29_68
REMARK    2  A    between atoms: C30_39  and  C34_46
REMARK                            x       y       z     vdW  Elec       q    Type
REMARK                         _______ _______ _______ _____ _____    ______ ____
ROOT
ATOM      1  C16 O1W A 201       3.744   7.791  24.253  0.00  0.00    +0.000 C 
ENDROOT
TORSDOF 0
REMARK  Name = /Users/chinazoemeh/HopeMScP/data/ligands/BRD4-BD1_BRD4-BD1_78_6XUZ/BRD4-BD1_BRD4-BD1_78_6XUZ.pdb
REMARK  2 active torsions:
REMARK  status: ('A' for Active; 'I' for Inactive)
REMARK    1  A    between atoms: C28_18  and  O29_68
REMARK    2  A    between atoms: C30_39  and  C34_46
REMARK                            x       y       z     vdW  Elec       q    Type
REMARK                         _______ _______ _______ _____ _____    ______ ____
ROOT
ATOM      1  C16 O1W A 201       3.751   7.793  24.247  0.00  0.00    +0.000 C 
ENDROOT
TORSDOF 0
REMARK  Name = /Users/chinazoemeh/HopeMScP/data/ligands/BRD4-BD1_BRD4-BD1_78_6XUZ/BRD4-BD1_BRD4-BD1_78_6XUZ.pdb
REMARK  2 active torsions:
REMARK  status: ('A' for Active; 'I' for Inactive)
REMARK    1  A    between atoms: C28_18  and  O29_68
REMARK    2  A    between atoms: C30_39  and  C34_46
REMARK                            x       y       z     vdW  Elec       q    Type
REMARK                         _______ _______ _______ _____ _____    ______ ____
ROOT
ATOM      1  C18 O1W A 201       3.933   5.669  21.262  0.00  0.00    +0.000 C 
ENDROOT
TORSDOF 0
REMARK  Name = /Users/chinazoemeh/HopeMScP/data/ligands/BRD4-BD1_BRD4-BD1_78_6XUZ/BRD4-BD1_BRD4-BD1_78_6XUZ.pdb
REMARK  2 active torsions:
REMARK  status: ('A' for Active; 'I' for Inactive)
REMARK    1  A    between atoms: C28_18  and  O29_68
REMARK    2  A    between atoms: C30_39  and  C34_46
REMARK                            x       y       z     vdW  Elec       q    Type
REMARK                         _______ _______ _______ _____ _____    ______ ____
ROOT
ATOM      1  C18 O1W A 201       3.942   5.672  21.258  0.00  0.00    +0.000 C 
ENDROOT
TORSDOF 0
REMARK  Name = /Users/chinazoemeh/HopeMScP/data/ligands/BRD4-BD1_BRD4-BD1_78_6XUZ/BRD4-BD1_BRD4-BD1_78_6XUZ.pdb
REMARK  2 active torsions:
REMARK  status: ('A' for Active; 'I' for Inactive)
REMARK    1  A    between atoms: C28_18  and  O29_68
REMARK    2  A    between atoms: C30_39  and  C34_46
REMARK                            x       y       z     vdW  Elec       q    Type
REMARK                         _______ _______ _______ _____ _____    ______ ____
ROOT
ATOM      1  C19 O1W A 201       3.642   4.433  20.714  0.00  0.00    +0.000 C 
ENDROOT
TORSDOF 0
REMARK  Name = /Users/chinazoemeh/HopeMScP/data/ligands/BRD4-BD1_BRD4-BD1_78_6XUZ/BRD4-BD1_BRD4-BD1_78_6XUZ.pdb
REMARK  2 active torsions:
REMARK  status: ('A' for Active; 'I' for Inactive)
REMARK    1  A    between atoms: C28_18  and  O29_68
REMARK    2  A    between atoms: C30_39  and  C34_46
REMARK                            x       y       z     vdW  Elec       q    Type
REMARK                         _______ _______ _______ _____ _____    ______ ____
ROOT
ATOM      1  C19 O1W A 201       3.650   4.431  20.720  0.00  0.00    +0.000 C 
ENDROOT
TORSDOF 0
REMARK  Name = /Users/chinazoemeh/HopeMScP/data/ligands/BRD4-BD1_BRD4-BD1_78_6XUZ/BRD4-BD1_BRD4-BD1_78_6XUZ.pdb
REMARK  2 active torsions:
REMARK  status: ('A' for Active; 'I' for Inactive)
REMARK    1  A    between atoms: C28_18  and  O29_68
REMARK    2  A    between atoms: C30_39  and  C34_46
REMARK                            x       y       z     vdW  Elec       q    Type
REMARK                         _______ _______ _______ _____ _____    ______ ____
ROOT
ATOM      1  C2  O1W A 201       5.012   8.996  21.670  0.00  0.00    +0.000 C 
ENDROOT
TORSDOF 0
REMARK  Name = /Users/chinazoemeh/HopeMScP/data/ligands/BRD4-BD1_BRD4-BD1_78_6XUZ/BRD4-BD1_BRD4-BD1_78_6XUZ.pdb
REMARK  2 active torsions:
REMARK  status: ('A' for Active; 'I' for Inactive)
REMARK    1  A    between atoms: C28_18  and  O29_68
REMARK    2  A    between atoms: C30_39  and  C34_46
REMARK                            x       y       z     vdW  Elec       q    Type
REMARK                         _______ _______ _______ _____ _____    ______ ____
ROOT
ATOM      1  C2  O1W A 201       5.007   8.999  21.664  0.00  0.00    +0.000 C 
ATOM      2  N10 O1W A 201       4.419   9.987  22.465  0.00  0.00    +0.000 NA
ENDROOT
TORSDOF 0
REMARK  Name = /Users/chinazoemeh/HopeMScP/data/ligands/BRD4-BD1_BRD4-BD1_78_6XUZ/BRD4-BD1_BRD4-BD1_78_6XUZ.pdb
REMARK  2 active torsions:
REMARK  status: ('A' for Active; 'I' for Inactive)
REMARK    1  A    between atoms: C28_18  and  O29_68
REMARK    2  A    between atoms: C30_39  and  C34_46
REMARK                            x       y       z     vdW  Elec       q    Type
REMARK                         _______ _______ _______ _____ _____    ______ ____
ROOT
ATOM      1  C23 O1W A 201       3.439  12.014  24.168  0.00  0.00    +0.000 C 
ENDROOT
TORSDOF 0
REMARK  Name = /Users/chinazoemeh/HopeMScP/data/ligands/BRD4-BD1_BRD4-BD1_78_6XUZ/BRD4-BD1_BRD4-BD1_78_6XUZ.pdb
REMARK  2 active torsions:
REMARK  status: ('A' for Active; 'I' for Inactive)
REMARK    1  A    between atoms: C28_18  and  O29_68
REMARK    2  A    between atoms: C30_39  and  C34_46
REMARK                            x       y       z     vdW  Elec       q    Type
REMARK                         _______ _______ _______ _____ _____    ______ ____
ROOT
ATOM      1  C23 O1W A 201       3.438  12.015  24.168  0.00  0.00    +0.000 C 
ENDROOT
TORSDOF 0
REMARK  Name = /Users/chinazoemeh/HopeMScP/data/ligands/BRD4-BD1_BRD4-BD1_78_6XUZ/BRD4-BD1_BRD4-BD1_78_6XUZ.pdb
REMARK  2 active torsions:
REMARK  status: ('A' for Active; 'I' for Inactive)
REMARK    1  A    between atoms: C28_18  and  O29_68
REMARK    2  A    between atoms: C30_39  and  C34_46
REMARK                            x       y       z     vdW  Elec       q    Type
REMARK                         _______ _______ _______ _____ _____    ______ ____
ROOT
ATOM      1  C25 O1W A 201       2.762  13.314  24.537  0.00  0.00    +0.000 C 
ENDROOT
TORSDOF 0
REMARK  Name = /Users/chinazoemeh/HopeMScP/data/ligands/BRD4-BD1_BRD4-BD1_78_6XUZ/BRD4-BD1_BRD4-BD1_78_6XUZ.pdb
REMARK  2 active torsions:
REMARK  status: ('A' for Active; 'I' for Inactive)
REMARK    1  A    between atoms: C28_18  and  O29_68
REMARK    2  A    between atoms: C30_39  and  C34_46
REMARK                            x       y       z     vdW  Elec       q    Type
REMARK                         _______ _______ _______ _____ _____    ______ ____
ROOT
ATOM      1  C25 O1W A 201       2.761  13.315  24.539  0.00  0.00    +0.000 C 
ENDROOT
TORSDOF 0
REMARK  Name = /Users/chinazoemeh/HopeMScP/data/ligands/BRD4-BD1_BRD4-BD1_78_6XUZ/BRD4-BD1_BRD4-BD1_78_6XUZ.pdb
REMARK  2 active torsions:
REMARK  status: ('A' for Active; 'I' for Inactive)
REMARK    1  A    between atoms: C28_18  and  O29_68
REMARK    2  A    between atoms: C30_39  and  C34_46
REMARK                            x       y       z     vdW  Elec       q    Type
REMARK                         _______ _______ _______ _____ _____    ______ ____
ROOT
ATOM      1  C27 O1W A 201       1.785   1.342  22.458  0.00  0.00    +0.000 C 
ENDROOT
TORSDOF 0
REMARK  Name = /Users/chinazoemeh/HopeMScP/data/ligands/BRD4-BD1_BRD4-BD1_78_6XUZ/BRD4-BD1_BRD4-BD1_78_6XUZ.pdb
REMARK  2 active torsions:
REMARK  status: ('A' for Active; 'I' for Inactive)
REMARK    1  A    between atoms: C28_18  and  O29_68
REMARK    2  A    between atoms: C30_39  and  C34_46
REMARK                            x       y       z     vdW  Elec       q    Type
REMARK                         _______ _______ _______ _____ _____    ______ ____
ROOT
ATOM      1  C27 O1W A 201       1.182   2.887  24.419  0.00  0.00    +0.000 C 
ATOM      2  C31 O1W A 201       0.892   2.805  24.148  0.00  0.00    +0.000 C 
ENDROOT
TORSDOF 0
REMARK  Name = /Users/chinazoemeh/HopeMScP/data/ligands/BRD4-BD1_BRD4-BD1_78_6XUZ/BRD4-BD1_BRD4-BD1_78_6XUZ.pdb
REMARK  2 active torsions:
REMARK  status: ('A' for Active; 'I' for Inactive)
REMARK    1  A    between atoms: C28_18  and  O29_68
REMARK    2  A    between atoms: C30_39  and  C34_46
REMARK                            x       y       z     vdW  Elec       q    Type
REMARK                         _______ _______ _______ _____ _____    ______ ____
ROOT
ATOM      1  C3  O1W A 201       4.513   7.651  21.823  0.00  0.00    +0.000 C 
ENDROOT
TORSDOF 0
REMARK  Name = /Users/chinazoemeh/HopeMScP/data/ligands/BRD4-BD1_BRD4-BD1_78_6XUZ/BRD4-BD1_BRD4-BD1_78_6XUZ.pdb
REMARK  2 active torsions:
REMARK  status: ('A' for Active; 'I' for Inactive)
REMARK    1  A    between atoms: C28_18  and  O29_68
REMARK    2  A    between atoms: C30_39  and  C34_46
REMARK                            x       y       z     vdW  Elec       q    Type
REMARK                         _______ _______ _______ _____ _____    ______ ____
ROOT
ATOM      1  C3  O1W A 201       4.517   7.656  21.814  0.00  0.00    +0.000 C 
ATOM      2  N4  O1W A 201       4.533   6.833  20.797  0.00  0.00    +0.000 NA
ENDROOT
TORSDOF 0
REMARK  Name = /Users/chinazoemeh/HopeMScP/data/ligands/BRD4-BD1_BRD4-BD1_78_6XUZ/BRD4-BD1_BRD4-BD1_78_6XUZ.pdb
REMARK  2 active torsions:
REMARK  status: ('A' for Active; 'I' for Inactive)
REMARK    1  A    between atoms: C28_18  and  O29_68
REMARK    2  A    between atoms: C30_39  and  C34_46
REMARK                            x       y       z     vdW  Elec       q    Type
REMARK                         _______ _______ _______ _____ _____    ______ ____
ROOT
ATOM      1  C30 O1W A 201      -0.360   2.900  23.314  0.00  0.00    +0.000 C 
ATOM      2  C34 O1W A 201      -0.114   3.545  24.000  0.00  0.00    +0.000 C 
ENDROOT
TORSDOF 0
REMARK  Name = /Users/chinazoemeh/HopeMScP/data/ligands/BRD4-BD1_BRD4-BD1_78_6XUZ/BRD4-BD1_BRD4-BD1_78_6XUZ.pdb
REMARK  2 active torsions:
REMARK  status: ('A' for Active; 'I' for Inactive)
REMARK    1  A    between atoms: C28_18  and  O29_68
REMARK    2  A    between atoms: C30_39  and  C34_46
REMARK                            x       y       z     vdW  Elec       q    Type
REMARK                         _______ _______ _______ _____ _____    ______ ____
ROOT
ATOM      1  C30 O1W A 201       1.638   0.259  23.478  0.00  0.00    +0.000 C 
ENDROOT
TORSDOF 0
REMARK  Name = /Users/chinazoemeh/HopeMScP/data/ligands/BRD4-BD1_BRD4-BD1_78_6XUZ/BRD4-BD1_BRD4-BD1_78_6XUZ.pdb
REMARK  2 active torsions:
REMARK  status: ('A' for Active; 'I' for Inactive)
REMARK    1  A    between atoms: C28_18  and  O29_68
REMARK    2  A    between atoms: C30_39  and  C34_46
REMARK                            x       y       z     vdW  Elec       q    Type
REMARK                         _______ _______ _______ _____ _____    ______ ____
ROOT
ATOM      1  C31 O1W A 201       1.696   1.391  22.496  0.00  0.00    +0.000 C 
ENDROOT
TORSDOF 0
REMARK  Name = /Users/chinazoemeh/HopeMScP/data/ligands/BRD4-BD1_BRD4-BD1_78_6XUZ/BRD4-BD1_BRD4-BD1_78_6XUZ.pdb
REMARK  2 active torsions:
REMARK  status: ('A' for Active; 'I' for Inactive)
REMARK    1  A    between atoms: C28_18  and  O29_68
REMARK    2  A    between atoms: C30_39  and  C34_46
REMARK                            x       y       z     vdW  Elec       q    Type
REMARK                         _______ _______ _______ _____ _____    ______ ____
ROOT
ATOM      1  C33 O1W A 201       6.946   7.179  25.814  0.00  0.00    +0.000 C 
ENDROOT
TORSDOF 0
REMARK  Name = /Users/chinazoemeh/HopeMScP/data/ligands/BRD4-BD1_BRD4-BD1_78_6XUZ/BRD4-BD1_BRD4-BD1_78_6XUZ.pdb
REMARK  2 active torsions:
REMARK  status: ('A' for Active; 'I' for Inactive)
REMARK    1  A    between atoms: C28_18  and  O29_68
REMARK    2  A    between atoms: C30_39  and  C34_46
REMARK                            x       y       z     vdW  Elec       q    Type
REMARK                         _______ _______ _______ _____ _____    ______ ____
ROOT
ATOM      1  C33 O1W A 201       6.945   7.180  25.814  0.00  0.00    +0.000 C 
ENDROOT
TORSDOF 0
REMARK  Name = /Users/chinazoemeh/HopeMScP/data/ligands/BRD4-BD1_BRD4-BD1_78_6XUZ/BRD4-BD1_BRD4-BD1_78_6XUZ.pdb
REMARK  2 active torsions:
REMARK  status: ('A' for Active; 'I' for Inactive)
REMARK    1  A    between atoms: C28_18  and  O29_68
REMARK    2  A    between atoms: C30_39  and  C34_46
REMARK                            x       y       z     vdW  Elec       q    Type
REMARK                         _______ _______ _______ _____ _____    ______ ____
ROOT
ATOM      1  C34 O1W A 201       1.613   0.129  23.354  0.00  0.00    +0.000 C 
ENDROOT
TORSDOF 0
REMARK  Name = /Users/chinazoemeh/HopeMScP/data/ligands/BRD4-BD1_BRD4-BD1_78_6XUZ/BRD4-BD1_BRD4-BD1_78_6XUZ.pdb
REMARK  2 active torsions:
REMARK  status: ('A' for Active; 'I' for Inactive)
REMARK    1  A    between atoms: C28_18  and  O29_68
REMARK    2  A    between atoms: C30_39  and  C34_46
REMARK                            x       y       z     vdW  Elec       q    Type
REMARK                         _______ _______ _______ _____ _____    ______ ____
ROOT
ATOM      1  C35 O1W A 201       2.305   7.834  24.724  0.00  0.00    +0.000 C 
ENDROOT
TORSDOF 0
REMARK  Name = /Users/chinazoemeh/HopeMScP/data/ligands/BRD4-BD1_BRD4-BD1_78_6XUZ/BRD4-BD1_BRD4-BD1_78_6XUZ.pdb
REMARK  2 active torsions:
REMARK  status: ('A' for Active; 'I' for Inactive)
REMARK    1  A    between atoms: C28_18  and  O29_68
REMARK    2  A    between atoms: C30_39  and  C34_46
REMARK                            x       y       z     vdW  Elec       q    Type
REMARK                         _______ _______ _______ _____ _____    ______ ____
ROOT
ATOM      1  C35 O1W A 201       2.311   7.837  24.720  0.00  0.00    +0.000 C 
ENDROOT
TORSDOF 0
REMARK  Name = /Users/chinazoemeh/HopeMScP/data/ligands/BRD4-BD1_BRD4-BD1_78_6XUZ/BRD4-BD1_BRD4-BD1_78_6XUZ.pdb
REMARK  2 active torsions:
REMARK  status: ('A' for Active; 'I' for Inactive)
REMARK    1  A    between atoms: C28_18  and  O29_68
REMARK    2  A    between atoms: C30_39  and  C34_46
REMARK                            x       y       z     vdW  Elec       q    Type
REMARK                         _______ _______ _______ _____ _____    ______ ____
ROOT
ATOM      1  C9  O1W A 201       4.868  11.215  22.289  0.00  0.00    +0.000 C 
ATOM      2  N10 O1W A 201       4.416   9.991  22.462  0.00  0.00    +0.000 NA
ENDROOT
TORSDOF 0
REMARK  Name = /Users/chinazoemeh/HopeMScP/data/ligands/BRD4-BD1_BRD4-BD1_78_6XUZ/BRD4-BD1_BRD4-BD1_78_6XUZ.pdb
REMARK  2 active torsions:
REMARK  status: ('A' for Active; 'I' for Inactive)
REMARK    1  A    between atoms: C28_18  and  O29_68
REMARK    2  A    between atoms: C30_39  and  C34_46
REMARK                            x       y       z     vdW  Elec       q    Type
REMARK                         _______ _______ _______ _____ _____    ______ ____
ROOT
ATOM      1  C9  O1W A 201       4.866  11.218  22.289  0.00  0.00    +0.000 C 
ENDROOT
TORSDOF 0
REMARK  Name = /Users/chinazoemeh/HopeMScP/data/ligands/BRD4-BD1_BRD4-BD1_78_6XUZ/BRD4-BD1_BRD4-BD1_78_6XUZ.pdb
REMARK  2 active torsions:
REMARK  status: ('A' for Active; 'I' for Inactive)
REMARK    1  A    between atoms: C28_18  and  O29_68
REMARK    2  A    between atoms: C30_39  and  C34_46
REMARK                            x       y       z     vdW  Elec       q    Type
REMARK                         _______ _______ _______ _____ _____    ______ ____
ROOT
ATOM      1  N11 O1W A 201       4.374  12.237  23.060  0.00  0.00    +0.000 NA
ENDROOT
TORSDOF 0
REMARK  Name = /Users/chinazoemeh/HopeMScP/data/ligands/BRD4-BD1_BRD4-BD1_78_6XUZ/BRD4-BD1_BRD4-BD1_78_6XUZ.pdb
REMARK  2 active torsions:
REMARK  status: ('A' for Active; 'I' for Inactive)
REMARK    1  A    between atoms: C28_18  and  O29_68
REMARK    2  A    between atoms: C30_39  and  C34_46
REMARK                            x       y       z     vdW  Elec       q    Type
REMARK                         _______ _______ _______ _____ _____    ______ ____
ROOT
ATOM      1  N11 O1W A 201       4.371  12.240  23.059  0.00  0.00    +0.000 NA
ATOM      2  H37 O1W A 201       4.720  13.182  22.930  0.00  0.00    +0.000 HD
ENDROOT
TORSDOF 0
REMARK  Name = /Users/chinazoemeh/HopeMScP/data/ligands/BRD4-BD1_BRD4-BD1_78_6XUZ/BRD4-BD1_BRD4-BD1_78_6XUZ.pdb
REMARK  2 active torsions:
REMARK  status: ('A' for Active; 'I' for Inactive)
REMARK    1  A    between atoms: C28_18  and  O29_68
REMARK    2  A    between atoms: C30_39  and  C34_46
REMARK                            x       y       z     vdW  Elec       q    Type
REMARK                         _______ _______ _______ _____ _____    ______ ____
ROOT
ATOM      1  N20 O1W A 201       3.006   3.439  21.343  0.00  0.00    +0.000 NA
ENDROOT
TORSDOF 0
REMARK  Name = /Users/chinazoemeh/HopeMScP/data/ligands/BRD4-BD1_BRD4-BD1_78_6XUZ/BRD4-BD1_BRD4-BD1_78_6XUZ.pdb
REMARK  2 active torsions:
REMARK  status: ('A' for Active; 'I' for Inactive)
REMARK    1  A    between atoms: C28_18  and  O29_68
REMARK    2  A    between atoms: C30_39  and  C34_46
REMARK                            x       y       z     vdW  Elec       q    Type
REMARK                         _______ _______ _______ _____ _____    ______ ____
ROOT
ATOM      1  N26 O1W A 201       2.018   2.571  23.238  0.00  0.00    +0.000 NA
ENDROOT
TORSDOF 0
REMARK  Name = /Users/chinazoemeh/HopeMScP/data/ligands/BRD4-BD1_BRD4-BD1_78_6XUZ/BRD4-BD1_BRD4-BD1_78_6XUZ.pdb
REMARK  2 active torsions:
REMARK  status: ('A' for Active; 'I' for Inactive)
REMARK    1  A    between atoms: C28_18  and  O29_68
REMARK    2  A    between atoms: C30_39  and  C34_46
REMARK                            x       y       z     vdW  Elec       q    Type
REMARK                         _______ _______ _______ _____ _____    ______ ____
ROOT
ATOM      1  N26 O1W A 201       2.042   2.595  23.256  0.00  0.00    +0.000 NA
ENDROOT
TORSDOF 0
REMARK  Name = /Users/chinazoemeh/HopeMScP/data/ligands/BRD4-BD1_BRD4-BD1_78_6XUZ/BRD4-BD1_BRD4-BD1_78_6XUZ.pdb
REMARK  2 active torsions:
REMARK  status: ('A' for Active; 'I' for Inactive)
REMARK    1  A    between atoms: C28_18  and  O29_68
REMARK    2  A    between atoms: C30_39  and  C34_46
REMARK                            x       y       z     vdW  Elec       q    Type
REMARK                         _______ _______ _______ _____ _____    ______ ____
ROOT
ATOM      1  N4  O1W A 201       4.538   6.834  20.789  0.00  0.00    +0.000 NA
ENDROOT
TORSDOF 0
REMARK  Name = /Users/chinazoemeh/HopeMScP/data/ligands/BRD4-BD1_BRD4-BD1_78_6XUZ/BRD4-BD1_BRD4-BD1_78_6XUZ.pdb
REMARK  2 active torsions:
REMARK  status: ('A' for Active; 'I' for Inactive)
REMARK    1  A    between atoms: C28_18  and  O29_68
REMARK    2  A    between atoms: C30_39  and  C34_46
REMARK                            x       y       z     vdW  Elec       q    Type
REMARK                         _______ _______ _______ _____ _____    ______ ____
ROOT
ATOM      1  N5  O1W A 201       3.888   7.138  22.916  0.00  0.00    +0.000 NA
ENDROOT
TORSDOF 0
REMARK  Name = /Users/chinazoemeh/HopeMScP/data/ligands/BRD4-BD1_BRD4-BD1_78_6XUZ/BRD4-BD1_BRD4-BD1_78_6XUZ.pdb
REMARK  2 active torsions:
REMARK  status: ('A' for Active; 'I' for Inactive)
REMARK    1  A    between atoms: C28_18  and  O29_68
REMARK    2  A    between atoms: C30_39  and  C34_46
REMARK                            x       y       z     vdW  Elec       q    Type
REMARK                         _______ _______ _______ _____ _____    ______ ____
ROOT
ATOM      1  N7  O1W A 201       6.300  10.610  20.516  0.00  0.00    +0.000 NA
ENDROOT
TORSDOF 0
REMARK  Name = /Users/chinazoemeh/HopeMScP/data/ligands/BRD4-BD1_BRD4-BD1_78_6XUZ/BRD4-BD1_BRD4-BD1_78_6XUZ.pdb
REMARK  2 active torsions:
REMARK  status: ('A' for Active; 'I' for Inactive)
REMARK    1  A    between atoms: C28_18  and  O29_68
REMARK    2  A    between atoms: C30_39  and  C34_46
REMARK                            x       y       z     vdW  Elec       q    Type
REMARK                         _______ _______ _______ _____ _____    ______ ____
ROOT
ATOM      1  N7  O1W A 201       6.296  10.610  20.510  0.00  0.00    +0.000 NA
ENDROOT
TORSDOF 0
REMARK  Name = /Users/chinazoemeh/HopeMScP/data/ligands/BRD4-BD1_BRD4-BD1_78_6XUZ/BRD4-BD1_BRD4-BD1_78_6XUZ.pdb
REMARK  2 active torsions:
REMARK  status: ('A' for Active; 'I' for Inactive)
REMARK    1  A    between atoms: C28_18  and  O29_68
REMARK    2  A    between atoms: C30_39  and  C34_46
REMARK                            x       y       z     vdW  Elec       q    Type
REMARK                         _______ _______ _______ _____ _____    ______ ____
ROOT
ATOM      1  O29 O1W A 201      -0.544   1.747  22.481  0.00  0.00    +0.000 OA
ENDROOT
TORSDOF 0
REMARK  Name = /Users/chinazoemeh/HopeMScP/data/ligands/BRD4-BD1_BRD4-BD1_78_6XUZ/BRD4-BD1_BRD4-BD1_78_6XUZ.pdb
REMARK  2 active torsions:
REMARK  status: ('A' for Active; 'I' for Inactive)
REMARK    1  A    between atoms: C28_18  and  O29_68
REMARK    2  A    between atoms: C30_39  and  C34_46
REMARK                            x       y       z     vdW  Elec       q    Type
REMARK                         _______ _______ _______ _____ _____    ______ ____
ROOT
ATOM      1  O32 O1W A 201       5.985   7.436  24.819  0.00  0.00    +0.000 OA
ENDROOT
TORSDOF 0
REMARK  Name = /Users/chinazoemeh/HopeMScP/data/ligands/BRD4-BD1_BRD4-BD1_78_6XUZ/BRD4-BD1_BRD4-BD1_78_6XUZ.pdb
REMARK  2 active torsions:
REMARK  status: ('A' for Active; 'I' for Inactive)
REMARK    1  A    between atoms: C28_18  and  O29_68
REMARK    2  A    between atoms: C30_39  and  C34_46
REMARK                            x       y       z     vdW  Elec       q    Type
REMARK                         _______ _______ _______ _____ _____    ______ ____
ROOT
ATOM      1  O32 O1W A 201       5.986   7.441  24.820  0.00  0.00    +0.000 OA
ENDROOT
TORSDOF 0
REMARK  Name = /Users/chinazoemeh/HopeMScP/data/ligands/BRD4-BD1_BRD4-BD1_78_6XUZ/BRD4-BD1_BRD4-BD1_78_6XUZ.pdb
REMARK  2 active torsions:
REMARK  status: ('A' for Active; 'I' for Inactive)
REMARK    1  A    between atoms: C28_18  and  O29_68
REMARK    2  A    between atoms: C30_39  and  C34_46
REMARK                            x       y       z     vdW  Elec       q    Type
REMARK                         _______ _______ _______ _____ _____    ______ ____
ROOT
ATOM      1  H36 O1W A 201       6.331   8.561  20.021  0.00  0.00    +0.000 HD
ENDROOT
TORSDOF 0
REMARK  Name = /Users/chinazoemeh/HopeMScP/data/ligands/BRD4-BD1_BRD4-BD1_78_6XUZ/BRD4-BD1_BRD4-BD1_78_6XUZ.pdb
REMARK  2 active torsions:
REMARK  status: ('A' for Active; 'I' for Inactive)
REMARK    1  A    between atoms: C28_18  and  O29_68
REMARK    2  A    between atoms: C30_39  and  C34_46
REMARK                            x       y       z     vdW  Elec       q    Type
REMARK                         _______ _______ _______ _____ _____    ______ ____
ROOT
ATOM      1  H38 O1W A 201       8.676  11.079  18.109  0.00  0.00    +0.000 HD
ENDROOT
TORSDOF 0
REMARK  Name = /Users/chinazoemeh/HopeMScP/data/ligands/BRD4-BD1_BRD4-BD1_78_6XUZ/BRD4-BD1_BRD4-BD1_78_6XUZ.pdb
REMARK  2 active torsions:
REMARK  status: ('A' for Active; 'I' for Inactive)
REMARK    1  A    between atoms: C28_18  and  O29_68
REMARK    2  A    between atoms: C30_39  and  C34_46
REMARK                            x       y       z     vdW  Elec       q    Type
REMARK                         _______ _______ _______ _____ _____    ______ ____
ROOT
ATOM      1  H39 O1W A 201       7.322   9.982  17.918  0.00  0.00    +0.000 HD
ENDROOT
TORSDOF 0
REMARK  Name = /Users/chinazoemeh/HopeMScP/data/ligands/BRD4-BD1_BRD4-BD1_78_6XUZ/BRD4-BD1_BRD4-BD1_78_6XUZ.pdb
REMARK  2 active torsions:
REMARK  status: ('A' for Active; 'I' for Inactive)
REMARK    1  A    between atoms: C28_18  and  O29_68
REMARK    2  A    between atoms: C30_39  and  C34_46
REMARK                            x       y       z     vdW  Elec       q    Type
REMARK                         _______ _______ _______ _____ _____    ______ ____
ROOT
ATOM      1  H40 O1W A 201       8.577   9.611  19.082  0.00  0.00    +0.000 HD
ENDROOT
TORSDOF 0
REMARK  Name = /Users/chinazoemeh/HopeMScP/data/ligands/BRD4-BD1_BRD4-BD1_78_6XUZ/BRD4-BD1_BRD4-BD1_78_6XUZ.pdb
REMARK  2 active torsions:
REMARK  status: ('A' for Active; 'I' for Inactive)
REMARK    1  A    between atoms: C28_18  and  O29_68
REMARK    2  A    between atoms: C30_39  and  C34_46
REMARK                            x       y       z     vdW  Elec       q    Type
REMARK                         _______ _______ _______ _____ _____    ______ ____
ROOT
ATOM      1  H44 O1W A 201       4.476   6.108  25.314  0.00  0.00    +0.000 HD
ENDROOT
TORSDOF 0
REMARK  Name = /Users/chinazoemeh/HopeMScP/data/ligands/BRD4-BD1_BRD4-BD1_78_6XUZ/BRD4-BD1_BRD4-BD1_78_6XUZ.pdb
REMARK  2 active torsions:
REMARK  status: ('A' for Active; 'I' for Inactive)
REMARK    1  A    between atoms: C28_18  and  O29_68
REMARK    2  A    between atoms: C30_39  and  C34_46
REMARK                            x       y       z     vdW  Elec       q    Type
REMARK                         _______ _______ _______ _____ _____    ______ ____
ROOT
ATOM      1  H45 O1W A 201       4.494   7.580  26.259  0.00  0.00    +0.000 HD
ENDROOT
TORSDOF 0
REMARK  Name = /Users/chinazoemeh/HopeMScP/data/ligands/BRD4-BD1_BRD4-BD1_78_6XUZ/BRD4-BD1_BRD4-BD1_78_6XUZ.pdb
REMARK  2 active torsions:
REMARK  status: ('A' for Active; 'I' for Inactive)
REMARK    1  A    between atoms: C28_18  and  O29_68
REMARK    2  A    between atoms: C30_39  and  C34_46
REMARK                            x       y       z     vdW  Elec       q    Type
REMARK                         _______ _______ _______ _____ _____    ______ ____
ROOT
ATOM      1  H49 O1W A 201       4.738  10.522  25.133  0.00  0.00    +0.000 HD
ENDROOT
TORSDOF 0
REMARK  Name = /Users/chinazoemeh/HopeMScP/data/ligands/BRD4-BD1_BRD4-BD1_78_6XUZ/BRD4-BD1_BRD4-BD1_78_6XUZ.pdb
REMARK  2 active torsions:
REMARK  status: ('A' for Active; 'I' for Inactive)
REMARK    1  A    between atoms: C28_18  and  O29_68
REMARK    2  A    between atoms: C30_39  and  C34_46
REMARK                            x       y       z     vdW  Elec       q    Type
REMARK                         _______ _______ _______ _____ _____    ______ ____
ROOT
ATOM      1  H47 O1W A 201       3.541  11.223  26.202  0.00  0.00    +0.000 HD
ENDROOT
TORSDOF 0
REMARK  Name = /Users/chinazoemeh/HopeMScP/data/ligands/BRD4-BD1_BRD4-BD1_78_6XUZ/BRD4-BD1_BRD4-BD1_78_6XUZ.pdb
REMARK  2 active torsions:
REMARK  status: ('A' for Active; 'I' for Inactive)
REMARK    1  A    between atoms: C28_18  and  O29_68
REMARK    2  A    between atoms: C30_39  and  C34_46
REMARK                            x       y       z     vdW  Elec       q    Type
REMARK                         _______ _______ _______ _____ _____    ______ ____
ROOT
ATOM      1  H47 O1W A 201       3.542  11.224  26.201  0.00  0.00    +0.000 HD
ENDROOT
TORSDOF 0
REMARK  Name = /Users/chinazoemeh/HopeMScP/data/ligands/BRD4-BD1_BRD4-BD1_78_6XUZ/BRD4-BD1_BRD4-BD1_78_6XUZ.pdb
REMARK  2 active torsions:
REMARK  status: ('A' for Active; 'I' for Inactive)
REMARK    1  A    between atoms: C28_18  and  O29_68
REMARK    2  A    between atoms: C30_39  and  C34_46
REMARK                            x       y       z     vdW  Elec       q    Type
REMARK                         _______ _______ _______ _____ _____    ______ ____
ROOT
ATOM      1  H48 O1W A 201       4.956  12.124  25.705  0.00  0.00    +0.000 HD
ENDROOT
TORSDOF 0
REMARK  Name = /Users/chinazoemeh/HopeMScP/data/ligands/BRD4-BD1_BRD4-BD1_78_6XUZ/BRD4-BD1_BRD4-BD1_78_6XUZ.pdb
REMARK  2 active torsions:
REMARK  status: ('A' for Active; 'I' for Inactive)
REMARK    1  A    between atoms: C28_18  and  O29_68
REMARK    2  A    between atoms: C30_39  and  C34_46
REMARK                            x       y       z     vdW  Elec       q    Type
REMARK                         _______ _______ _______ _____ _____    ______ ____
ROOT
ATOM      1  H41 O1W A 201       4.042   8.830  24.111  0.00  0.00    +0.000 HD
ENDROOT
TORSDOF 0
REMARK  Name = /Users/chinazoemeh/HopeMScP/data/ligands/BRD4-BD1_BRD4-BD1_78_6XUZ/BRD4-BD1_BRD4-BD1_78_6XUZ.pdb
REMARK  2 active torsions:
REMARK  status: ('A' for Active; 'I' for Inactive)
REMARK    1  A    between atoms: C28_18  and  O29_68
REMARK    2  A    between atoms: C30_39  and  C34_46
REMARK                            x       y       z     vdW  Elec       q    Type
REMARK                         _______ _______ _______ _____ _____    ______ ____
ROOT
ATOM      1  H42 O1W A 201       3.890   4.233  19.672  0.00  0.00    +0.000 HD
ENDROOT
TORSDOF 0
REMARK  Name = /Users/chinazoemeh/HopeMScP/data/ligands/BRD4-BD1_BRD4-BD1_78_6XUZ/BRD4-BD1_BRD4-BD1_78_6XUZ.pdb
REMARK  2 active torsions:
REMARK  status: ('A' for Active; 'I' for Inactive)
REMARK    1  A    between atoms: C28_18  and  O29_68
REMARK    2  A    between atoms: C30_39  and  C34_46
REMARK                            x       y       z     vdW  Elec       q    Type
REMARK                         _______ _______ _______ _____ _____    ______ ____
ROOT
ATOM      1  H46 O1W A 201       2.667  11.313  23.854  0.00  0.00    +0.000 HD
ENDROOT
TORSDOF 0
REMARK  Name = /Users/chinazoemeh/HopeMScP/data/ligands/BRD4-BD1_BRD4-BD1_78_6XUZ/BRD4-BD1_BRD4-BD1_78_6XUZ.pdb
REMARK  2 active torsions:
REMARK  status: ('A' for Active; 'I' for Inactive)
REMARK    1  A    between atoms: C28_18  and  O29_68
REMARK    2  A    between atoms: C30_39  and  C34_46
REMARK                            x       y       z     vdW  Elec       q    Type
REMARK                         _______ _______ _______ _____ _____    ______ ____
ROOT
ATOM      1  H52 O1W A 201       3.469  14.066  24.886  0.00  0.00    +0.000 HD
ENDROOT
TORSDOF 0
REMARK  Name = /Users/chinazoemeh/HopeMScP/data/ligands/BRD4-BD1_BRD4-BD1_78_6XUZ/BRD4-BD1_BRD4-BD1_78_6XUZ.pdb
REMARK  2 active torsions:
REMARK  status: ('A' for Active; 'I' for Inactive)
REMARK    1  A    between atoms: C28_18  and  O29_68
REMARK    2  A    between atoms: C30_39  and  C34_46
REMARK                            x       y       z     vdW  Elec       q    Type
REMARK                         _______ _______ _______ _____ _____    ______ ____
ROOT
ATOM      1  H50 O1W A 201       2.063  13.159  25.360  0.00  0.00    +0.000 HD
ENDROOT
TORSDOF 0
REMARK  Name = /Users/chinazoemeh/HopeMScP/data/ligands/BRD4-BD1_BRD4-BD1_78_6XUZ/BRD4-BD1_BRD4-BD1_78_6XUZ.pdb
REMARK  2 active torsions:
REMARK  status: ('A' for Active; 'I' for Inactive)
REMARK    1  A    between atoms: C28_18  and  O29_68
REMARK    2  A    between atoms: C30_39  and  C34_46
REMARK                            x       y       z     vdW  Elec       q    Type
REMARK                         _______ _______ _______ _____ _____    ______ ____
ROOT
ATOM      1  H51 O1W A 201       2.185  13.752  23.725  0.00  0.00    +0.000 HD
ENDROOT
TORSDOF 0
REMARK  Name = /Users/chinazoemeh/HopeMScP/data/ligands/BRD4-BD1_BRD4-BD1_78_6XUZ/BRD4-BD1_BRD4-BD1_78_6XUZ.pdb
REMARK  2 active torsions:
REMARK  status: ('A' for Active; 'I' for Inactive)
REMARK    1  A    between atoms: C28_18  and  O29_68
REMARK    2  A    between atoms: C30_39  and  C34_46
REMARK                            x       y       z     vdW  Elec       q    Type
REMARK                         _______ _______ _______ _____ _____    ______ ____
ROOT
ATOM      1  H53 O1W A 201       2.606   1.110  21.784  0.00  0.00    +0.000 HD
ENDROOT
TORSDOF 0
REMARK  Name = /Users/chinazoemeh/HopeMScP/data/ligands/BRD4-BD1_BRD4-BD1_78_6XUZ/BRD4-BD1_BRD4-BD1_78_6XUZ.pdb
REMARK  2 active torsions:
REMARK  status: ('A' for Active; 'I' for Inactive)
REMARK    1  A    between atoms: C28_18  and  O29_68
REMARK    2  A    between atoms: C30_39  and  C34_46
REMARK                            x       y       z     vdW  Elec       q    Type
REMARK                         _______ _______ _______ _____ _____    ______ ____
ROOT
ATOM      1  H53 O1W A 201       1.649   3.548  25.145  0.00  0.00    +0.000 HD
ENDROOT
TORSDOF 0
REMARK  Name = /Users/chinazoemeh/HopeMScP/data/ligands/BRD4-BD1_BRD4-BD1_78_6XUZ/BRD4-BD1_BRD4-BD1_78_6XUZ.pdb
REMARK  2 active torsions:
REMARK  status: ('A' for Active; 'I' for Inactive)
REMARK    1  A    between atoms: C28_18  and  O29_68
REMARK    2  A    between atoms: C30_39  and  C34_46
REMARK                            x       y       z     vdW  Elec       q    Type
REMARK                         _______ _______ _______ _____ _____    ______ ____
ROOT
ATOM      1  H57 O1W A 201       2.621   0.091  23.916  0.00  0.00    +0.000 HD
ENDROOT
TORSDOF 0
REMARK  Name = /Users/chinazoemeh/HopeMScP/data/ligands/BRD4-BD1_BRD4-BD1_78_6XUZ/BRD4-BD1_BRD4-BD1_78_6XUZ.pdb
REMARK  2 active torsions:
REMARK  status: ('A' for Active; 'I' for Inactive)
REMARK    1  A    between atoms: C28_18  and  O29_68
REMARK    2  A    between atoms: C30_39  and  C34_46
REMARK                            x       y       z     vdW  Elec       q    Type
REMARK                         _______ _______ _______ _____ _____    ______ ____
ROOT
ATOM      1  H60 O1W A 201       7.959   7.364  25.460  0.00  0.00    +0.000 HD
ENDROOT
TORSDOF 0
REMARK  Name = /Users/chinazoemeh/HopeMScP/data/ligands/BRD4-BD1_BRD4-BD1_78_6XUZ/BRD4-BD1_BRD4-BD1_78_6XUZ.pdb
REMARK  2 active torsions:
REMARK  status: ('A' for Active; 'I' for Inactive)
REMARK    1  A    between atoms: C28_18  and  O29_68
REMARK    2  A    between atoms: C30_39  and  C34_46
REMARK                            x       y       z     vdW  Elec       q    Type
REMARK                         _______ _______ _______ _____ _____    ______ ____
ROOT
ATOM      1  H61 O1W A 201       6.834   6.119  26.037  0.00  0.00    +0.000 HD
ENDROOT
TORSDOF 0
REMARK  Name = /Users/chinazoemeh/HopeMScP/data/ligands/BRD4-BD1_BRD4-BD1_78_6XUZ/BRD4-BD1_BRD4-BD1_78_6XUZ.pdb
REMARK  2 active torsions:
REMARK  status: ('A' for Active; 'I' for Inactive)
REMARK    1  A    between atoms: C28_18  and  O29_68
REMARK    2  A    between atoms: C30_39  and  C34_46
REMARK                            x       y       z     vdW  Elec       q    Type
REMARK                         _______ _______ _______ _____ _____    ______ ____
ROOT
ATOM      1  H62 O1W A 201       6.783   7.761  26.721  0.00  0.00    +0.000 HD
ENDROOT
TORSDOF 0
REMARK  Name = /Users/chinazoemeh/HopeMScP/data/ligands/BRD4-BD1_BRD4-BD1_78_6XUZ/BRD4-BD1_BRD4-BD1_78_6XUZ.pdb
REMARK  2 active torsions:
REMARK  status: ('A' for Active; 'I' for Inactive)
REMARK    1  A    between atoms: C28_18  and  O29_68
REMARK    2  A    between atoms: C30_39  and  C34_46
REMARK                            x       y       z     vdW  Elec       q    Type
REMARK                         _______ _______ _______ _____ _____    ______ ____
ROOT
ATOM      1  H64 O1W A 201      -0.717   2.937  23.327  0.00  0.00    +0.000 HD
ENDROOT
TORSDOF 0
REMARK  Name = /Users/chinazoemeh/HopeMScP/data/ligands/BRD4-BD1_BRD4-BD1_78_6XUZ/BRD4-BD1_BRD4-BD1_78_6XUZ.pdb
REMARK  2 active torsions:
REMARK  status: ('A' for Active; 'I' for Inactive)
REMARK    1  A    between atoms: C28_18  and  O29_68
REMARK    2  A    between atoms: C30_39  and  C34_46
REMARK                            x       y       z     vdW  Elec       q    Type
REMARK                         _______ _______ _______ _____ _____    ______ ____
ROOT
ATOM      1  H65 O1W A 201       0.056   4.494  23.493  0.00  0.00    +0.000 HD
ENDROOT
TORSDOF 0
REMARK  Name = /Users/chinazoemeh/HopeMScP/data/ligands/BRD4-BD1_BRD4-BD1_78_6XUZ/BRD4-BD1_BRD4-BD1_78_6XUZ.pdb
REMARK  2 active torsions:
REMARK  status: ('A' for Active; 'I' for Inactive)
REMARK    1  A    between atoms: C28_18  and  O29_68
REMARK    2  A    between atoms: C30_39  and  C34_46
REMARK                            x       y       z     vdW  Elec       q    Type
REMARK                         _______ _______ _______ _____ _____    ______ ____
ROOT
ATOM      1  H63 O1W A 201       1.475  -0.771  22.757  0.00  0.00    +0.000 HD
ENDROOT
TORSDOF 0
REMARK  Name = /Users/chinazoemeh/HopeMScP/data/ligands/BRD4-BD1_BRD4-BD1_78_6XUZ/BRD4-BD1_BRD4-BD1_78_6XUZ.pdb
REMARK  2 active torsions:
REMARK  status: ('A' for Active; 'I' for Inactive)
REMARK    1  A    between atoms: C28_18  and  O29_68
REMARK    2  A    between atoms: C30_39  and  C34_46
REMARK                            x       y       z     vdW  Elec       q    Type
REMARK                         _______ _______ _______ _____ _____    ______ ____
ROOT
ATOM      1  H67 O1W A 201       1.881   6.842  24.860  0.00  0.00    +0.000 HD
ENDROOT
TORSDOF 0
REMARK  Name = /Users/chinazoemeh/HopeMScP/data/ligands/BRD4-BD1_BRD4-BD1_78_6XUZ/BRD4-BD1_BRD4-BD1_78_6XUZ.pdb
REMARK  2 active torsions:
REMARK  status: ('A' for Active; 'I' for Inactive)
REMARK    1  A    between atoms: C28_18  and  O29_68
REMARK    2  A    between atoms: C30_39  and  C34_46
REMARK                            x       y       z     vdW  Elec       q    Type
REMARK                         _______ _______ _______ _____ _____    ______ ____
ROOT
ATOM      1  H68 O1W A 201       1.659   8.377  24.035  0.00  0.00    +0.000 HD
ENDROOT
TORSDOF 0
REMARK  Name = /Users/chinazoemeh/HopeMScP/data/ligands/BRD4-BD1_BRD4-BD1_78_6XUZ/BRD4-BD1_BRD4-BD1_78_6XUZ.pdb
REMARK  2 active torsions:
REMARK  status: ('A' for Active; 'I' for Inactive)
REMARK    1  A    between atoms: C28_18  and  O29_68
REMARK    2  A    between atoms: C30_39  and  C34_46
REMARK                            x       y       z     vdW  Elec       q    Type
REMARK                         _______ _______ _______ _____ _____    ______ ____
ROOT
ATOM      1  H66 O1W A 201       2.207   8.336  25.686  0.00  0.00    +0.000 HD
ENDROOT
TORSDOF 0
REMARK  Name = /Users/chinazoemeh/HopeMScP/data/ligands/BRD4-BD1_BRD4-BD1_78_6XUZ/BRD4-BD1_BRD4-BD1_78_6XUZ.pdb
REMARK  2 active torsions:
REMARK  status: ('A' for Active; 'I' for Inactive)
REMARK    1  A    between atoms: C28_18  and  O29_68
REMARK    2  A    between atoms: C30_39  and  C34_46
REMARK                            x       y       z     vdW  Elec       q    Type
REMARK                         _______ _______ _______ _____ _____    ______ ____
ROOT
ATOM      1  H37 O1W A 201       4.720  13.184  22.931  0.00  0.00    +0.000 HD
ENDROOT
TORSDOF 0
