/Users/chinazoemeh/HopeMScP/data/ligands/ache/AChE_35_6CQT/AChE_35_6CQT.pdb
 OpenBabel07172512173D

 84 86  0  0  1  0  0  0  0  0999 V2000
   58.8880    4.5980   11.4750 C   0  0  0  0  0  0  0  0  0  0  0  0
   58.2740    3.4440   10.6920 C   0  0  1  0  0  0  0  0  0  0  0  0
   56.7870    3.3060   10.9970 C   0  0  2  0  0  0  0  0  0  0  0  0
   56.5360    3.3050   12.5000 C   0  0  1  0  0  0  0  0  0  0  0  0
   57.2540    4.4680   13.1740 C   0  0  1  0  0  0  0  0  0  0  0  0
   57.0650    4.4230   14.6860 C   0  0  0  0  0  0  0  0  0  0  0  0
   59.3300    2.9090    8.5730 C   0  0  0  0  0  0  0  0  0  0  0  0
   59.4140    1.4650    8.9710 C   0  0  0  0  0  0  0  0  0  0  0  0
   58.4720    3.6490    9.2700 N   0  0  0  0  0  0  0  0  0  0  0  0
   56.2950    2.0870   10.4290 O   0  0  0  0  0  0  0  0  0  0  0  0
   55.1290    3.4040   12.7480 O   0  0  0  0  0  0  0  0  0  0  0  0
   58.6450    4.4100   12.8670 O   0  0  0  0  0  0  0  0  0  0  0  0
   57.1870    3.0710   15.1430 O   0  0  0  0  0  0  0  0  0  0  0  0
   60.0050    3.3740    7.6700 O   0  0  0  0  0  0  0  0  0  0  0  0
   54.7440    2.3480   13.6460 C   0  0  1  0  0  0  0  0  0  0  0  0
   53.3520    2.6330   14.1990 C   0  0  1  0  0  0  0  0  0  0  0  0
   52.9030    1.5270   15.1460 C   0  0  2  0  0  0  0  0  0  0  0  0
   53.1060    0.1540   14.5160 C   0  0  1  0  0  0  0  0  0  0  0  0
   54.5120    0.0170   13.9450 C   0  0  1  0  0  0  0  0  0  0  0  0
   54.6910   -1.3270   13.2500 C   0  0  0  0  0  0  0  0  0  0  0  0
   52.8430    5.0020   14.3190 C   0  0  0  0  0  0  0  0  0  0  0  0
   52.9880    6.2700   15.1080 C   0  0  0  0  0  0  0  0  0  0  0  0
   53.3440    3.9090   14.8870 N   0  0  0  0  0  0  0  0  0  0  0  0
   51.5190    1.7050   15.4660 O   0  0  0  0  0  0  0  0  0  0  0  0
   52.8910   -0.8610   15.5040 O   0  0  0  0  0  0  0  0  0  0  0  0
   54.7510    1.0700   13.0140 O   0  0  0  0  0  0  0  0  0  0  0  0
   54.3710   -1.1920   11.8600 O   0  0  0  0  0  0  0  0  0  0  0  0
   52.3000    4.9760   13.2270 O   0  0  0  0  0  0  0  0  0  0  0  0
  127.5070   57.9540   21.5660 C   0  0  0  0  0  0  0  0  0  0  0  0
  128.3590   58.4330   20.3970 C   0  0  1  0  0  0  0  0  0  0  0  0
  128.6900   57.2820   19.4550 C   0  0  2  0  0  0  0  0  0  0  0  0
  129.2260   56.0820   20.2270 C   0  0  1  0  0  0  0  0  0  0  0  0
  128.3220   55.7430   21.4060 C   0  0  1  0  0  0  0  0  0  0  0  0
  128.8970   54.5920   22.2220 C   0  0  0  0  0  0  0  0  0  0  0  0
  128.2600   60.6340   19.3800 C   0  0  0  0  0  0  0  0  0  0  0  0
  129.2010   61.1630   20.4210 C   0  0  0  0  0  0  0  0  0  0  0  0
  127.6650   59.4810   19.6740 N   0  0  0  0  0  0  0  0  0  0  0  0
  129.6680   57.7120   18.5010 O   0  0  0  0  0  0  0  0  0  0  0  0
  129.3130   54.9520   19.3520 O   0  0  0  0  0  0  0  0  0  0  0  0
  128.1780   56.8910   22.2400 O   0  0  0  0  0  0  0  0  0  0  0  0
  130.2960   54.8100   22.4350 O   0  0  0  0  0  0  0  0  0  0  0  0
  128.0540   61.2220   18.3310 O   0  0  0  0  0  0  0  0  0  0  0  0
  130.6830   54.5160   19.2960 C   0  0  1  0  0  0  0  0  0  0  0  0
  130.7460   53.1110   18.7100 C   0  0  1  0  0  0  0  0  0  0  0  0
  132.1860   52.6200   18.6220 C   0  0  2  0  0  0  0  0  0  0  0  0
  133.0790   53.6620   17.9590 C   0  0  1  0  0  0  0  0  0  0  0  0
  132.8760   55.0350   18.5890 C   0  0  1  0  0  0  0  0  0  0  0  0
  133.7120   56.0920   17.8770 C   0  0  0  0  0  0  0  0  0  0  0  0
  128.9570   51.4980   19.0020 C   0  0  0  0  0  0  0  0  0  0  0  0
  127.8870   51.0850   19.9680 C   0  0  0  0  0  0  0  0  0  0  0  0
  129.9610   52.2000   19.5200 N   0  0  0  0  0  0  0  0  0  0  0  0
  132.2310   51.4040   17.8660 O   0  0  0  0  0  0  0  0  0  0  0  0
  134.4500   53.2720   18.0950 O   0  0  0  0  0  0  0  0  0  0  0  0
  131.4980   55.3920   18.5180 O   0  0  0  0  0  0  0  0  0  0  0  0
  134.7300   56.5720   18.7620 O   0  0  0  0  0  0  0  0  0  0  0  0
  128.9110   51.2090   17.8180 O   0  0  0  0  0  0  0  0  0  0  0  0
   25.9890   23.9470   46.3750 C   0  0  0  0  0  0  0  0  0  0  0  0
   24.6860   24.6850   46.5740 C   0  0  1  0  0  0  0  0  0  0  0  0
   24.8880   25.9310   47.4080 C   0  0  2  0  0  0  0  0  0  0  0  0
   25.7110   25.6650   48.6530 C   0  0  1  0  0  0  0  0  0  0  0  0
   26.9230   24.8100   48.3360 C   0  0  1  0  0  0  0  0  0  0  0  0
   27.6340   24.3990   49.6130 C   0  0  0  0  0  0  0  0  0  0  0  0
   22.9340   24.5420   44.8750 C   0  0  0  0  0  0  0  0  0  0  0  0
   22.5150   23.1920   45.3560 C   0  0  0  0  0  0  0  0  0  0  0  0
   24.1070   25.0180   45.2930 N   0  0  0  0  0  0  0  0  0  0  0  0
   23.6040   26.3600   47.8630 O   0  0  0  0  0  0  0  0  0  0  0  0
   26.1250   26.9180   49.2200 O   0  0  0  0  0  0  0  0  0  0  0  0
   26.5310   23.6480   47.6430 O   0  0  0  0  0  0  0  0  0  0  0  0
   27.1460   23.1360   50.0500 O   0  0  0  0  0  0  0  0  0  0  0  0
   22.2440   25.1790   44.1240 O   0  0  0  0  0  0  0  0  0  0  0  0
   79.9660   18.6560   24.5990 C   0  0  0  0  0  0  0  0  0  0  0  0
   79.6780   18.3970   26.0750 C   0  0  1  0  0  0  0  0  0  0  0  0
   80.9600   18.3730   26.8950 C   0  0  2  0  0  0  0  0  0  0  0  0
   81.9550   17.4110   26.2670 C   0  0  1  0  0  0  0  0  0  0  0  0
   82.1750   17.7700   24.8040 C   0  0  1  0  0  0  0  0  0  0  0  0
   83.1580   16.8060   24.1500 C   0  0  0  0  0  0  0  0  0  0  0  0
   77.4630   19.3290   26.4110 C   0  0  0  0  0  0  0  0  0  0  0  0
   77.0210   18.7670   25.0930 C   0  0  0  0  0  0  0  0  0  0  0  0
   78.7780   19.4110   26.5910 N   0  0  0  0  0  0  0  0  0  0  0  0
   80.6670   17.9570   28.2330 O   0  0  0  0  0  0  0  0  0  0  0  0
   83.2000   17.4800   26.9710 O   0  0  0  0  0  0  0  0  0  0  0  0
   80.9360   17.7360   24.0950 O   0  0  0  0  0  0  0  0  0  0  0  0
   84.3600   16.7490   24.9270 O   0  0  0  0  0  0  0  0  0  0  0  0
   76.6680   19.6890   27.2630 O   0  0  0  0  0  0  0  0  0  0  0  0
  1 12  1  0  0  0  0
  2  9  1  6  0  0  0
  2  3  1  0  0  0  0
  2  1  1  0  0  0  0
  3 10  1  1  0  0  0
  3  4  1  0  0  0  0
  4 11  1  6  0  0  0
  4  5  1  0  0  0  0
  5  6  1  1  0  0  0
  6 13  1  0  0  0  0
  7  8  1  0  0  0  0
  7  9  1  0  0  0  0
 12  5  1  0  0  0  0
 14  7  2  0  0  0  0
 15 11  1  6  0  0  0
 15 16  1  0  0  0  0
 16 23  1  1  0  0  0
 16 17  1  0  0  0  0
 17 24  1  6  0  0  0
 18 17  1  0  0  0  0
 18 25  1  1  0  0  0
 19 20  1  6  0  0  0
 19 18  1  0  0  0  0
 21 23  1  0  0  0  0
 21 22  1  0  0  0  0
 26 15  1  0  0  0  0
 26 19  1  0  0  0  0
 27 20  1  0  0  0  0
 28 21  2  0  0  0  0
 29 40  1  0  0  0  0
 30 37  1  6  0  0  0
 30 29  1  0  0  0  0
 31 38  1  6  0  0  0
 31 32  1  0  0  0  0
 31 30  1  0  0  0  0
 32 39  1  6  0  0  0
 32 33  1  0  0  0  0
 33 34  1  1  0  0  0
 33 40  1  0  0  0  0
 34 41  1  0  0  0  0
 35 37  1  0  0  0  0
 35 36  1  0  0  0  0
 42 35  2  0  0  0  0
 43 39  1  6  0  0  0
 44 43  1  0  0  0  0
 44 51  1  1  0  0  0
 45 52  1  6  0  0  0
 45 44  1  0  0  0  0
 46 53  1  1  0  0  0
 46 47  1  0  0  0  0
 46 45  1  0  0  0  0
 47 48  1  6  0  0  0
 48 55  1  0  0  0  0
 49 51  1  0  0  0  0
 49 50  1  0  0  0  0
 54 47  1  0  0  0  0
 54 43  1  0  0  0  0
 56 49  2  0  0  0  0
 57 58  1  0  0  0  0
 57 68  1  0  0  0  0
 58 65  1  6  0  0  0
 58 59  1  0  0  0  0
 59 66  1  1  0  0  0
 59 60  1  0  0  0  0
 60 67  1  6  0  0  0
 61 60  1  0  0  0  0
 61 62  1  1  0  0  0
 62 69  1  0  0  0  0
 63 65  1  0  0  0  0
 63 64  1  0  0  0  0
 68 61  1  0  0  0  0
 70 63  2  0  0  0  0
 71 72  1  0  0  0  0
 72 79  1  1  0  0  0
 72 73  1  0  0  0  0
 73 80  1  1  0  0  0
 74 73  1  0  0  0  0
 74 81  1  1  0  0  0
 75 76  1  6  0  0  0
 75 74  1  0  0  0  0
 76 83  1  0  0  0  0
 77 79  1  0  0  0  0
 77 84  2  0  0  0  0
 78 77  1  0  0  0  0
 82 71  1  0  0  0  0
 82 75  1  0  0  0  0
M  END
$$$$
