/Users/chinazoemeh/HopeMScP/data/ligands/ache/AChE_24_6U37/AChE_24_6U37.pdb
 OpenBabel07172512173D

 24 20  0  0  0  0  0  0  0  0999 V2000
  -30.1530   99.1570  -15.2340 C   0  0  0  0  0  0  0  0  0  0  0  0
  -29.0730   98.6300  -15.9730 O   0  0  0  0  0  0  0  0  0  0  0  0
  -29.8220   99.1100  -13.7470 C   0  0  0  0  0  0  0  0  0  0  0  0
  -28.4220   99.0890  -13.5710 O   0  0  0  0  0  0  0  0  0  0  0  0
  -30.4330   97.8560  -13.1340 C   0  0  0  0  0  0  0  0  0  0  0  0
  -30.0220   97.7400  -11.7900 O   0  0  0  0  0  0  0  0  0  0  0  0
  -30.6980  108.2100   -8.1690 C   0  0  0  0  0  0  0  0  0  0  0  0
  -29.9770  108.9110   -7.1820 O   0  0  0  0  0  0  0  0  0  0  0  0
  -31.1710  109.1730   -9.2530 C   0  0  0  0  0  0  0  0  0  0  0  0
  -31.0660  108.5520  -10.5140 O   0  0  0  0  0  0  0  0  0  0  0  0
  -30.3120  110.4310   -9.2350 C   0  0  0  0  0  0  0  0  0  0  0  0
  -30.7560  111.3240  -10.2310 O   0  0  0  0  0  0  0  0  0  0  0  0
  -38.1310   84.9770   15.5580 C   0  0  0  0  0  0  0  0  0  0  0  0
  -37.3640   84.7480   14.3970 O   0  0  0  0  0  0  0  0  0  0  0  0
  -38.5690   83.6440   16.1530 C   0  0  0  0  0  0  0  0  0  0  0  0
  -37.9100   82.5890   15.4880 O   0  0  0  0  0  0  0  0  0  0  0  0
  -38.2080   83.6130   17.6320 C   0  0  0  0  0  0  0  0  0  0  0  0
  -38.7300   84.7590   18.2680 O   0  0  0  0  0  0  0  0  0  0  0  0
  -46.8230   80.2580   10.6750 C   0  0  0  0  0  0  0  0  0  0  0  0
  -47.0840   79.3040    9.6710 O   0  0  0  0  0  0  0  0  0  0  0  0
  -47.8580   80.1310   11.7870 C   0  0  0  0  0  0  0  0  0  0  0  0
  -47.3120   80.6060   12.9980 O   0  0  0  0  0  0  0  0  0  0  0  0
  -48.2590   78.6700   11.9470 C   0  0  0  0  0  0  0  0  0  0  0  0
  -49.6240   78.5890   12.2890 O   0  0  0  0  0  0  0  0  0  0  0  0
  1  3  1  0  0  0  0
  2  1  1  0  0  0  0
  3  4  1  0  0  0  0
  3  5  1  0  0  0  0
  5  6  1  0  0  0  0
  7  8  1  0  0  0  0
  9 11  1  0  0  0  0
  9  7  1  0  0  0  0
 10  9  1  0  0  0  0
 12 11  1  0  0  0  0
 13 15  1  0  0  0  0
 14 13  1  0  0  0  0
 15 17  1  0  0  0  0
 16 15  1  0  0  0  0
 17 18  1  0  0  0  0
 19 21  1  0  0  0  0
 20 19  1  0  0  0  0
 21 23  1  0  0  0  0
 21 22  1  0  0  0  0
 23 24  1  0  0  0  0
M  END
$$$$
