/Users/chinazoemeh/HopeMScP/data/ligands/ache/AChE_1_7D9O/AChE_1_7D9O.pdb
 OpenBabel07172512173D

 56 58  0  0  1  0  0  0  0  0999 V2000
  -22.9870  -58.2050   21.3480 C   0  0  0  0  0  0  0  0  0  0  0  0
  -23.7260  -58.7190   20.0970 C   0  0  1  0  0  0  0  0  0  0  0  0
  -24.1350  -57.5650   19.1860 C   0  0  2  0  0  0  0  0  0  0  0  0
  -24.8660  -56.4840   19.9670 C   0  0  1  0  0  0  0  0  0  0  0  0
  -23.9990  -56.0520   21.1450 C   0  0  1  0  0  0  0  0  0  0  0  0
  -24.6420  -55.0120   22.0300 C   0  0  0  0  0  0  0  0  0  0  0  0
  -23.1880  -60.9690   19.2590 C   0  0  0  0  0  0  0  0  0  0  0  0
  -24.4110  -61.4360   19.9890 C   0  0  0  0  0  0  0  0  0  0  0  0
  -22.9050  -59.6670   19.3590 N   0  0  0  0  0  0  0  0  0  0  0  0
  -24.9710  -58.0720   18.1510 O   0  0  0  0  0  0  0  0  0  0  0  0
  -25.1310  -55.3870   19.1010 O   0  0  0  0  0  0  0  0  0  0  0  0
  -23.7510  -57.1920   21.9760 O   0  0  0  0  0  0  0  0  0  0  0  0
  -25.9770  -55.3790   22.3470 O   0  0  0  0  0  0  0  0  0  0  0  0
  -22.4780  -61.7390   18.6190 O   0  0  0  0  0  0  0  0  0  0  0  0
  -26.5040  -54.9670   19.2350 C   0  0  1  0  0  0  0  0  0  0  0  0
  -26.5800  -53.5620   18.6430 C   0  0  1  0  0  0  0  0  0  0  0  0
  -28.0120  -53.0310   18.7120 C   0  0  2  0  0  0  0  0  0  0  0  0
  -28.9930  -54.0360   18.1220 C   0  0  1  0  0  0  0  0  0  0  0  0
  -28.7870  -55.4090   18.7530 C   0  0  1  0  0  0  0  0  0  0  0  0
  -29.6650  -56.4840   18.1550 C   0  0  0  0  0  0  0  0  0  0  0  0
  -24.5070  -52.2580   18.8260 C   0  0  0  0  0  0  0  0  0  0  0  0
  -23.6930  -51.3420   19.6890 C   0  0  0  0  0  0  0  0  0  0  0  0
  -25.6720  -52.6660   19.3410 N   0  0  0  0  0  0  0  0  0  0  0  0
  -28.0880  -51.8020   17.9990 O   0  0  0  0  0  0  0  0  0  0  0  0
  -30.3290  -53.6060   18.3600 O   0  0  0  0  0  0  0  0  0  0  0  0
  -27.4270  -55.8230   18.5650 O   0  0  0  0  0  0  0  0  0  0  0  0
  -29.9690  -57.4890   19.1120 O   0  0  0  0  0  0  0  0  0  0  0  0
  -24.1280  -52.6090   17.7130 O   0  0  0  0  0  0  0  0  0  0  0  0
  -59.0500   -4.8750   11.7830 C   0  0  0  0  0  0  0  0  0  0  0  0
  -58.4910   -3.8440   10.8050 C   0  0  1  0  0  0  0  0  0  0  0  0
  -56.9980   -3.6330   11.0390 C   0  0  2  0  0  0  0  0  0  0  0  0
  -56.7160   -3.3460   12.5070 C   0  0  1  0  0  0  0  0  0  0  0  0
  -57.3410   -4.4380   13.3720 C   0  0  1  0  0  0  0  0  0  0  0  0
  -57.1930   -4.2080   14.8590 C   0  0  0  0  0  0  0  0  0  0  0  0
  -59.6240   -3.6620    8.6230 C   0  0  0  0  0  0  0  0  0  0  0  0
  -60.3650   -2.4930    9.2010 C   0  0  0  0  0  0  0  0  0  0  0  0
  -58.7410   -4.2590    9.4330 N   0  0  0  0  0  0  0  0  0  0  0  0
  -56.5550   -2.5450   10.2360 O   0  0  0  0  0  0  0  0  0  0  0  0
  -55.3080   -3.3030   12.7050 O   0  0  0  0  0  0  0  0  0  0  0  0
  -58.7480   -4.4910   13.1080 O   0  0  0  0  0  0  0  0  0  0  0  0
  -57.5260   -2.8730   15.1990 O   0  0  0  0  0  0  0  0  0  0  0  0
  -59.8120   -4.0450    7.4720 O   0  0  0  0  0  0  0  0  0  0  0  0
  -54.9480   -2.1260   13.4590 C   0  0  1  0  0  0  0  0  0  0  0  0
  -53.5330   -2.3720   13.9780 C   0  0  1  0  0  0  0  0  0  0  0  0
  -53.0350   -1.1630   14.7670 C   0  0  2  0  0  0  0  0  0  0  0  0
  -53.2140    0.1200   13.9650 C   0  0  1  0  0  0  0  0  0  0  0  0
  -54.6510    0.2330   13.4640 C   0  0  1  0  0  0  0  0  0  0  0  0
  -54.8880    1.4390   12.5860 C   0  0  0  0  0  0  0  0  0  0  0  0
  -53.0000   -4.7370   14.3790 C   0  0  0  0  0  0  0  0  0  0  0  0
  -53.0490   -5.8660   15.3650 C   0  0  0  0  0  0  0  0  0  0  0  0
  -53.4950   -3.5690   14.8020 N   0  0  0  0  0  0  0  0  0  0  0  0
  -51.6610   -1.3470   15.0840 O   0  0  0  0  0  0  0  0  0  0  0  0
  -52.9120    1.2470   14.7790 O   0  0  0  0  0  0  0  0  0  0  0  0
  -54.9760   -0.9250   12.6850 O   0  0  0  0  0  0  0  0  0  0  0  0
  -56.2310    1.8940   12.6860 O   0  0  0  0  0  0  0  0  0  0  0  0
  -52.5300   -4.8750   13.2550 O   0  0  0  0  0  0  0  0  0  0  0  0
  1 12  1  0  0  0  0
  2  9  1  6  0  0  0
  2  1  1  0  0  0  0
  3 10  1  6  0  0  0
  3  4  1  0  0  0  0
  3  2  1  0  0  0  0
  4 11  1  6  0  0  0
  4  5  1  0  0  0  0
  5 12  1  0  0  0  0
  5  6  1  1  0  0  0
  6 13  1  0  0  0  0
  7  9  1  0  0  0  0
  7  8  1  0  0  0  0
 14  7  2  0  0  0  0
 15 11  1  6  0  0  0
 16 17  1  0  0  0  0
 16 15  1  0  0  0  0
 16 23  1  1  0  0  0
 17 24  1  6  0  0  0
 18 25  1  1  0  0  0
 18 17  1  0  0  0  0
 18 19  1  0  0  0  0
 19 20  1  6  0  0  0
 20 27  1  0  0  0  0
 21 23  1  0  0  0  0
 21 22  1  0  0  0  0
 26 19  1  0  0  0  0
 26 15  1  0  0  0  0
 28 21  2  0  0  0  0
 29 40  1  0  0  0  0
 30 37  1  6  0  0  0
 30 31  1  0  0  0  0
 30 29  1  0  0  0  0
 31 38  1  6  0  0  0
 31 32  1  0  0  0  0
 32 39  1  6  0  0  0
 32 33  1  0  0  0  0
 33 34  1  1  0  0  0
 34 41  1  0  0  0  0
 35 36  1  0  0  0  0
 35 37  1  0  0  0  0
 40 33  1  0  0  0  0
 42 35  2  0  0  0  0
 43 39  1  6  0  0  0
 43 44  1  0  0  0  0
 44 45  1  0  0  0  0
 44 51  1  1  0  0  0
 45 52  1  6  0  0  0
 46 45  1  0  0  0  0
 46 53  1  1  0  0  0
 47 48  1  6  0  0  0
 47 46  1  0  0  0  0
 48 55  1  0  0  0  0
 49 51  1  0  0  0  0
 49 50  1  0  0  0  0
 54 43  1  0  0  0  0
 54 47  1  0  0  0  0
 56 49  2  0  0  0  0
M  END
$$$$
