/Users/chinazoemeh/HopeMScP/data/ligands/ache/AChE_33_4M0E/AChE_33_4M0E.pdb
 OpenBabel07172512173D

 70 72  0  0  1  0  0  0  0  0999 V2000
  -23.0230  -58.8820   21.7220 C   0  0  0  0  0  0  0  0  0  0  0  0
  -23.9600  -59.3880   20.6130 C   0  0  1  0  0  0  0  0  0  0  0  0
  -24.4120  -58.2310   19.7170 C   0  0  2  0  0  0  0  0  0  0  0  0
  -24.9460  -57.0800   20.5570 C   0  0  1  0  0  0  0  0  0  0  0  0
  -23.9270  -56.7020   21.6260 C   0  0  1  0  0  0  0  0  0  0  0  0
  -24.4130  -55.6100   22.5520 C   0  0  0  0  0  0  0  0  0  0  0  0
  -23.8080  -61.6500   19.6680 C   0  0  0  0  0  0  0  0  0  0  0  0
  -25.1170  -61.9220   20.3460 C   0  0  0  0  0  0  0  0  0  0  0  0
  -23.3080  -60.4200   19.8250 N   0  0  0  0  0  0  0  0  0  0  0  0
  -25.4410  -58.6800   18.8410 O   0  0  0  0  0  0  0  0  0  0  0  0
  -25.2190  -55.9630   19.7200 O   0  0  0  0  0  0  0  0  0  0  0  0
  -23.6530  -57.8520   22.4400 O   0  0  0  0  0  0  0  0  0  0  0  0
  -25.6520  -55.9530   23.1560 O   0  0  0  0  0  0  0  0  0  0  0  0
  -23.2320  -62.5020   19.0010 O   0  0  0  0  0  0  0  0  0  0  0  0
  -26.4850  -55.2950   19.7510 C   0  0  1  0  0  0  0  0  0  0  0  0
  -26.5890  -53.8320   19.3260 C   0  0  1  0  0  0  0  0  0  0  0  0
  -28.0050  -53.3100   19.5630 C   0  0  2  0  0  0  0  0  0  0  0  0
  -29.0260  -54.2290   18.8980 C   0  0  1  0  0  0  0  0  0  0  0  0
  -28.8040  -55.6700   19.3500 C   0  0  1  0  0  0  0  0  0  0  0  0
  -29.7100  -56.6620   18.6610 C   0  0  0  0  0  0  0  0  0  0  0  0
  -24.4500  -52.6400   19.4670 C   0  0  0  0  0  0  0  0  0  0  0  0
  -23.5430  -51.7970   20.3200 C   0  0  0  0  0  0  0  0  0  0  0  0
  -25.6110  -53.0110   20.0230 N   0  0  0  0  0  0  0  0  0  0  0  0
  -28.1030  -51.9910   19.0370 O   0  0  0  0  0  0  0  0  0  0  0  0
  -30.3560  -53.8340   19.2240 O   0  0  0  0  0  0  0  0  0  0  0  0
  -27.4580  -56.0670   19.0520 O   0  0  0  0  0  0  0  0  0  0  0  0
  -29.4650  -57.9790   19.1340 O   0  0  0  0  0  0  0  0  0  0  0  0
  -24.1440  -52.9730   18.3250 O   0  0  0  0  0  0  0  0  0  0  0  0
   25.4600  -53.6350  -11.4880 C   0  0  0  0  0  0  0  0  0  0  0  0
   26.1660  -52.5100  -10.7290 C   0  0  1  0  0  0  0  0  0  0  0  0
   25.4780  -51.1770  -10.9970 C   0  0  2  0  0  0  0  0  0  0  0  0
   25.4270  -50.9270  -12.4960 C   0  0  1  0  0  0  0  0  0  0  0  0
   24.7030  -52.0900  -13.1650 C   0  0  1  0  0  0  0  0  0  0  0  0
   24.6390  -51.9630  -14.6680 C   0  0  0  0  0  0  0  0  0  0  0  0
   27.3610  -52.9190   -8.6290 C   0  0  0  0  0  0  0  0  0  0  0  0
   28.6200  -52.7500   -9.4300 C   0  0  0  0  0  0  0  0  0  0  0  0
   26.2130  -52.7890   -9.3030 N   0  0  0  0  0  0  0  0  0  0  0  0
   26.1830  -50.1280  -10.3460 O   0  0  0  0  0  0  0  0  0  0  0  0
   24.7910  -49.6880  -12.7950 O   0  0  0  0  0  0  0  0  0  0  0  0
   25.4020  -53.3140  -12.8780 O   0  0  0  0  0  0  0  0  0  0  0  0
   25.9130  -51.6450  -15.2110 O   0  0  0  0  0  0  0  0  0  0  0  0
   27.3820  -53.1570   -7.4270 O   0  0  0  0  0  0  0  0  0  0  0  0
   25.5480  -48.6040  -13.5320 C   0  0  1  0  0  0  0  0  0  0  0  0
   24.5060  -47.7080  -14.2160 C   0  0  1  0  0  0  0  0  0  0  0  0
   25.1670  -46.8270  -15.2820 C   0  0  2  0  0  0  0  0  0  0  0  0
   26.3610  -46.0790  -14.7010 C   0  0  1  0  0  0  0  0  0  0  0  0
   27.3200  -47.0620  -14.0380 C   0  0  1  0  0  0  0  0  0  0  0  0
   28.4940  -46.3870  -13.3680 C   0  0  0  0  0  0  0  0  0  0  0  0
   22.2010  -48.5530  -14.3200 C   0  0  0  0  0  0  0  0  0  0  0  0
   21.9290  -47.6820  -13.1360 C   0  0  0  0  0  0  0  0  0  0  0  0
   23.4470  -48.5150  -14.8020 N   0  0  0  0  0  0  0  0  0  0  0  0
   24.2170  -45.8890  -15.7750 O   0  0  0  0  0  0  0  0  0  0  0  0
   27.0390  -45.3540  -15.7220 O   0  0  0  0  0  0  0  0  0  0  0  0
   26.6220  -47.7940  -13.0190 O   0  0  0  0  0  0  0  0  0  0  0  0
   28.9810  -47.1540  -12.2750 O   0  0  0  0  0  0  0  0  0  0  0  0
   21.3290  -49.2540  -14.8270 O   0  0  0  0  0  0  0  0  0  0  0  0
   -7.6790  -35.6030  -46.7640 C   0  0  0  0  0  0  0  0  0  0  0  0
   -9.1650  -35.4990  -47.1330 C   0  0  1  0  0  0  0  0  0  0  0  0
   -9.4960  -36.4530  -48.2810 C   0  0  2  0  0  0  0  0  0  0  0  0
   -8.6070  -36.1530  -49.4800 C   0  0  1  0  0  0  0  0  0  0  0  0
   -7.1440  -36.3130  -49.0690 C   0  0  1  0  0  0  0  0  0  0  0  0
   -6.1610  -35.9990  -50.1790 C   0  0  0  0  0  0  0  0  0  0  0  0
  -10.4540  -34.8180  -45.1530 C   0  0  0  0  0  0  0  0  0  0  0  0
  -11.3170  -35.2870  -44.0130 C   0  0  0  0  0  0  0  0  0  0  0  0
  -10.0090  -35.7720  -45.9790 N   0  0  0  0  0  0  0  0  0  0  0  0
  -10.8670  -36.3360  -48.6450 O   0  0  0  0  0  0  0  0  0  0  0  0
   -8.9290  -37.0160  -50.5660 O   0  0  0  0  0  0  0  0  0  0  0  0
   -6.8500  -35.4200  -47.9780 O   0  0  0  0  0  0  0  0  0  0  0  0
   -6.8060  -35.7300  -51.4170 O   0  0  0  0  0  0  0  0  0  0  0  0
  -10.1650  -33.6260  -45.3080 O   0  0  0  0  0  0  0  0  0  0  0  0
  1 12  1  0  0  0  0
  2  9  1  6  0  0  0
  2  1  1  0  0  0  0
  3 10  1  6  0  0  0
  3  4  1  0  0  0  0
  3  2  1  0  0  0  0
  4 11  1  6  0  0  0
  4  5  1  0  0  0  0
  5 12  1  0  0  0  0
  5  6  1  1  0  0  0
  6 13  1  0  0  0  0
  7  9  1  0  0  0  0
  7  8  1  0  0  0  0
 14  7  2  0  0  0  0
 15 11  1  6  0  0  0
 16 17  1  0  0  0  0
 16 15  1  0  0  0  0
 16 23  1  1  0  0  0
 17 24  1  6  0  0  0
 18 25  1  1  0  0  0
 18 19  1  0  0  0  0
 18 17  1  0  0  0  0
 19 20  1  6  0  0  0
 20 27  1  0  0  0  0
 21 23  1  0  0  0  0
 21 22  1  0  0  0  0
 26 19  1  0  0  0  0
 26 15  1  0  0  0  0
 28 21  2  0  0  0  0
 29 30  1  0  0  0  0
 30 37  1  1  0  0  0
 31 30  1  0  0  0  0
 31 38  1  1  0  0  0
 32 39  1  1  0  0  0
 32 31  1  0  0  0  0
 33 34  1  6  0  0  0
 33 40  1  0  0  0  0
 33 32  1  0  0  0  0
 35 42  2  0  0  0  0
 36 35  1  0  0  0  0
 37 35  1  0  0  0  0
 40 29  1  0  0  0  0
 41 34  1  0  0  0  0
 43 54  1  0  0  0  0
 43 39  1  1  0  0  0
 44 51  1  6  0  0  0
 44 43  1  0  0  0  0
 45 52  1  1  0  0  0
 45 46  1  0  0  0  0
 45 44  1  0  0  0  0
 46 53  1  6  0  0  0
 46 47  1  0  0  0  0
 47 48  1  1  0  0  0
 47 54  1  0  0  0  0
 48 55  1  0  0  0  0
 49 50  1  0  0  0  0
 51 49  1  0  0  0  0
 56 49  2  0  0  0  0
 58 57  1  0  0  0  0
 58 65  1  1  0  0  0
 59 66  1  6  0  0  0
 59 58  1  0  0  0  0
 60 67  1  6  0  0  0
 60 61  1  0  0  0  0
 60 59  1  0  0  0  0
 61 62  1  6  0  0  0
 61 68  1  0  0  0  0
 63 64  1  0  0  0  0
 65 63  1  0  0  0  0
 68 57  1  0  0  0  0
 69 62  1  0  0  0  0
 70 63  2  0  0  0  0
M  END
$$$$
