/Users/chinazoemeh/HopeMScP/data/ligands/ache/AChE_60_4EY8/AChE_60_4EY8.pdb
 OpenBabel07172512173D

 42 43  0  0  1  0  0  0  0  0999 V2000
  -28.9560  -18.1300   31.0690 C   0  0  0  0  0  0  0  0  0  0  0  0
  -29.2500  -18.4080   29.5920 C   0  0  1  0  0  0  0  0  0  0  0  0
  -30.3400  -19.4630   29.4160 C   0  0  2  0  0  0  0  0  0  0  0  0
  -30.0540  -20.7070   30.2660 C   0  0  1  0  0  0  0  0  0  0  0  0
  -29.6820  -20.3370   31.7080 C   0  0  1  0  0  0  0  0  0  0  0  0
  -29.1480  -21.5670   32.4380 C   0  0  0  0  0  0  0  0  0  0  0  0
  -28.7080  -16.5610   28.1090 C   0  0  0  0  0  0  0  0  0  0  0  0
  -27.8590  -17.4160   27.2170 C   0  0  0  0  0  0  0  0  0  0  0  0
  -29.5990  -17.1890   28.8770 N   0  0  0  0  0  0  0  0  0  0  0  0
  -30.4280  -19.7850   28.0450 O   0  0  0  0  0  0  0  0  0  0  0  0
  -31.1690  -21.5900   30.2870 O   0  0  0  0  0  0  0  0  0  0  0  0
  -28.6840  -19.3350   31.7580 O   0  0  0  0  0  0  0  0  0  0  0  0
  -28.0710  -22.0600   31.6680 O   0  0  0  0  0  0  0  0  0  0  0  0
  -28.5550  -15.3390   28.1200 O   0  0  0  0  0  0  0  0  0  0  0  0
  -30.8250  -22.9660   29.6510 C   0  0  1  0  0  0  0  0  0  0  0  0
  -31.7080  -24.0940   30.2190 C   0  0  1  0  0  0  0  0  0  0  0  0
  -31.5670  -25.4020   29.4260 C   0  0  2  0  0  0  0  0  0  0  0  0
  -31.4720  -25.2020   27.9100 C   0  0  1  0  0  0  0  0  0  0  0  0
  -30.5030  -24.0830   27.5530 C   0  0  1  0  0  0  0  0  0  0  0  0
  -30.5340  -23.8390   26.0470 C   0  0  0  0  0  0  0  0  0  0  0  0
  -32.3830  -24.4360   32.5960 C   0  0  0  0  0  0  0  0  0  0  0  0
  -33.1090  -25.7440   32.7500 C   0  0  0  0  0  0  0  0  0  0  0  0
  -31.4420  -24.3420   31.6390 N   0  0  0  0  0  0  0  0  0  0  0  0
  -32.6650  -26.2470   29.7010 O   0  0  0  0  0  0  0  0  0  0  0  0
  -31.0400  -26.4000   27.2860 O   0  0  0  0  0  0  0  0  0  0  0  0
  -30.8480  -22.8950   28.2360 O   0  0  0  0  0  0  0  0  0  0  0  0
  -29.8810  -22.6350   25.7200 O   0  0  0  0  0  0  0  0  0  0  0  0
  -32.6620  -23.5130   33.3610 O   0  0  0  0  0  0  0  0  0  0  0  0
  -10.1080   -8.0560   49.3700 C   0  0  0  0  0  0  0  0  0  0  0  0
  -10.0500   -9.5870   49.3780 C   0  0  1  0  0  0  0  0  0  0  0  0
   -8.6790  -10.0930   48.9260 C   0  0  2  0  0  0  0  0  0  0  0  0
   -8.3090   -9.4770   47.5780 C   0  0  1  0  0  0  0  0  0  0  0  0
   -8.4920   -7.9560   47.5880 C   0  0  1  0  0  0  0  0  0  0  0  0
   -8.3050   -7.3710   46.1900 C   0  0  0  0  0  0  0  0  0  0  0  0
  -11.6260  -10.5870   50.9390 C   0  0  0  0  0  0  0  0  0  0  0  0
  -12.3960  -11.1550   49.7780 C   0  0  0  0  0  0  0  0  0  0  0  0
  -10.4040  -10.1110   50.6870 N   0  0  0  0  0  0  0  0  0  0  0  0
   -8.6730  -11.5040   48.8250 O   0  0  0  0  0  0  0  0  0  0  0  0
   -6.9710   -9.8020   47.2600 O   0  0  0  0  0  0  0  0  0  0  0  0
   -9.7720   -7.5770   48.0730 O   0  0  0  0  0  0  0  0  0  0  0  0
   -6.9840   -7.6020   45.7570 O   0  0  0  0  0  0  0  0  0  0  0  0
  -12.1290  -10.5650   52.0600 O   0  0  0  0  0  0  0  0  0  0  0  0
  1 12  1  0  0  0  0
  2  9  1  1  0  0  0
  2  1  1  0  0  0  0
  3 10  1  6  0  0  0
  3  2  1  0  0  0  0
  3  4  1  0  0  0  0
  4 11  1  1  0  0  0
  4  5  1  0  0  0  0
  5 12  1  0  0  0  0
  5  6  1  6  0  0  0
  7 14  2  0  0  0  0
  7  9  1  0  0  0  0
  8  7  1  0  0  0  0
 13  6  1  0  0  0  0
 15 16  1  0  0  0  0
 15 11  1  1  0  0  0
 16 23  1  1  0  0  0
 17 24  1  6  0  0  0
 17 16  1  0  0  0  0
 18 25  1  6  0  0  0
 18 17  1  0  0  0  0
 19 20  1  6  0  0  0
 19 18  1  0  0  0  0
 19 26  1  0  0  0  0
 21 22  1  0  0  0  0
 21 28  2  0  0  0  0
 23 21  1  0  0  0  0
 26 15  1  0  0  0  0
 27 20  1  0  0  0  0
 29 30  1  0  0  0  0
 30 37  1  1  0  0  0
 31 38  1  6  0  0  0
 31 30  1  0  0  0  0
 32 39  1  1  0  0  0
 32 33  1  0  0  0  0
 32 31  1  0  0  0  0
 33 34  1  6  0  0  0
 33 40  1  0  0  0  0
 35 42  2  0  0  0  0
 36 35  1  0  0  0  0
 37 35  1  0  0  0  0
 40 29  1  0  0  0  0
 41 34  1  0  0  0  0
M  END
$$$$
