/Users/chinazoemeh/HopeMScP/data/ligands/ache/AChE_67_6F25/AChE_67_6F25.pdb
 OpenBabel07172512173D

 98101  0  0  1  0  0  0  0  0999 V2000
  196.7160  116.8950    5.7400 C   0  0  0  0  0  0  0  0  0  0  0  0
  197.1240  118.1790    5.0100 C   0  0  1  0  0  0  0  0  0  0  0  0
  197.6570  117.8580    3.6130 C   0  0  2  0  0  0  0  0  0  0  0  0
  198.7780  116.8310    3.6940 C   0  0  1  0  0  0  0  0  0  0  0  0
  198.3010  115.6010    4.4730 C   0  0  1  0  0  0  0  0  0  0  0  0
  199.3720  114.5590    4.7300 C   0  0  0  0  0  0  0  0  0  0  0  0
  194.8490  118.9050    4.3510 C   0  0  0  0  0  0  0  0  0  0  0  0
  193.8600  120.0300    4.4080 C   0  0  0  0  0  0  0  0  0  0  0  0
  196.0280  119.1360    4.9450 N   0  0  0  0  0  0  0  0  0  0  0  0
  198.1320  119.0510    2.9980 O   0  0  0  0  0  0  0  0  0  0  0  0
  199.1970  116.4700    2.3810 O   0  0  0  0  0  0  0  0  0  0  0  0
  197.8090  115.9910    5.7640 O   0  0  0  0  0  0  0  0  0  0  0  0
  200.7030  115.0290    4.5640 O   0  0  0  0  0  0  0  0  0  0  0  0
  194.5900  117.8420    3.7910 O   0  0  0  0  0  0  0  0  0  0  0  0
  200.5860  116.8270    2.1720 C   0  0  1  0  0  0  0  0  0  0  0  0
  201.1930  115.9860    1.0490 C   0  0  1  0  0  0  0  0  0  0  0  0
  202.6830  116.2850    0.9140 C   0  0  2  0  0  0  0  0  0  0  0  0
  202.9110  117.7820    0.7470 C   0  0  1  0  0  0  0  0  0  0  0  0
  202.2270  118.5520    1.8750 C   0  0  1  0  0  0  0  0  0  0  0  0
  202.3180  120.0510    1.7060 C   0  0  0  0  0  0  0  0  0  0  0  0
  200.2780  113.7900    0.4430 C   0  0  0  0  0  0  0  0  0  0  0  0
  200.1540  112.3490    0.8340 C   0  0  0  0  0  0  0  0  0  0  0  0
  200.9750  114.5670    1.2790 N   0  0  0  0  0  0  0  0  0  0  0  0
  203.2120  115.5840   -0.2060 O   0  0  0  0  0  0  0  0  0  0  0  0
  204.3060  118.0670    0.7570 O   0  0  0  0  0  0  0  0  0  0  0  0
  200.8300  118.2200    1.9180 O   0  0  0  0  0  0  0  0  0  0  0  0
  201.9440  120.7340    2.8940 O   0  0  0  0  0  0  0  0  0  0  0  0
  199.7690  114.2320   -0.5830 O   0  0  0  0  0  0  0  0  0  0  0  0
  217.2590   75.4030  -15.9150 C   0  0  0  0  0  0  0  0  0  0  0  0
  217.4560   73.9910  -16.4880 C   0  0  1  0  0  0  0  0  0  0  0  0
  218.9230   73.6260  -16.4080 C   0  0  2  0  0  0  0  0  0  0  0  0
  219.6810   74.7160  -17.1340 C   0  0  1  0  0  0  0  0  0  0  0  0
  219.7380   75.9110  -16.1950 C   0  0  1  0  0  0  0  0  0  0  0  0
  219.7650   77.2360  -16.9200 C   0  0  0  0  0  0  0  0  0  0  0  0
  215.4340   72.6110  -16.2720 C   0  0  0  0  0  0  0  0  0  0  0  0
  214.9820   73.2380  -17.5600 C   0  0  0  0  0  0  0  0  0  0  0  0
  216.6260   73.0090  -15.8070 N   0  0  0  0  0  0  0  0  0  0  0  0
  219.2800   72.3630  -16.9660 O   0  0  0  0  0  0  0  0  0  0  0  0
  220.9290   74.1460  -17.4910 O   0  0  0  0  0  0  0  0  0  0  0  0
  218.5680   75.9190  -15.3470 O   0  0  0  0  0  0  0  0  0  0  0  0
  220.6390   77.1970  -18.0400 O   0  0  0  0  0  0  0  0  0  0  0  0
  214.7500   71.7820  -15.6800 O   0  0  0  0  0  0  0  0  0  0  0  0
  220.0310   71.3920  -16.1770 C   0  0  1  0  0  0  0  0  0  0  0  0
  220.1950   71.5680  -14.6760 C   0  0  1  0  0  0  0  0  0  0  0  0
  220.6430   70.2560  -14.0350 C   0  0  2  0  0  0  0  0  0  0  0  0
  219.7210   69.1140  -14.4370 C   0  0  1  0  0  0  0  0  0  0  0  0
  219.5750   69.0630  -15.9550 C   0  0  1  0  0  0  0  0  0  0  0  0
  218.5540   68.0480  -16.4130 C   0  0  0  0  0  0  0  0  0  0  0  0
  221.1360   73.3890  -13.3090 C   0  0  0  0  0  0  0  0  0  0  0  0
  222.2250   74.4150  -13.2030 C   0  0  0  0  0  0  0  0  0  0  0  0
  221.1650   72.6160  -14.3990 N   0  0  0  0  0  0  0  0  0  0  0  0
  220.6600   70.3970  -12.6190 O   0  0  0  0  0  0  0  0  0  0  0  0
  220.2580   67.8790  -13.9800 O   0  0  0  0  0  0  0  0  0  0  0  0
  219.1410   70.3400  -16.4480 O   0  0  0  0  0  0  0  0  0  0  0  0
  217.7530   67.5940  -15.3310 O   0  0  0  0  0  0  0  0  0  0  0  0
  220.2720   73.2670  -12.4470 O   0  0  0  0  0  0  0  0  0  0  0  0
  147.7870   96.1090  -18.1300 C   0  0  0  0  0  0  0  0  0  0  0  0
  147.9580   94.6040  -18.2090 C   0  0  1  0  0  0  0  0  0  0  0  0
  148.7680   94.2420  -19.4430 C   0  0  2  0  0  0  0  0  0  0  0  0
  148.1060   94.8150  -20.6900 C   0  0  1  0  0  0  0  0  0  0  0  0
  147.7990   96.3080  -20.5230 C   0  0  1  0  0  0  0  0  0  0  0  0
  146.9460   96.8510  -21.6460 C   0  0  0  0  0  0  0  0  0  0  0  0
  147.9030   93.4490  -16.0400 C   0  0  0  0  0  0  0  0  0  0  0  0
  146.4280   93.2910  -16.2670 C   0  0  0  0  0  0  0  0  0  0  0  0
  148.5840   94.0820  -17.0040 N   0  0  0  0  0  0  0  0  0  0  0  0
  148.8580   92.8250  -19.5460 O   0  0  0  0  0  0  0  0  0  0  0  0
  148.9800   94.6510  -21.8030 O   0  0  0  0  0  0  0  0  0  0  0  0
  147.0910   96.5710  -19.2950 O   0  0  0  0  0  0  0  0  0  0  0  0
  145.7510   97.4330  -21.1460 O   0  0  0  0  0  0  0  0  0  0  0  0
  148.4540   93.0220  -15.0300 O   0  0  0  0  0  0  0  0  0  0  0  0
  148.5550   93.5780  -22.6710 C   0  0  1  0  0  0  0  0  0  0  0  0
  149.7040   93.2100  -23.6050 C   0  0  1  0  0  0  0  0  0  0  0  0
  149.2670   92.1110  -24.5670 C   0  0  2  0  0  0  0  0  0  0  0  0
  148.7260   90.9170  -23.7920 C   0  0  1  0  0  0  0  0  0  0  0  0
  147.6250   91.3620  -22.8310 C   0  0  1  0  0  0  0  0  0  0  0  0
  147.1410   90.2470  -21.9330 C   0  0  0  0  0  0  0  0  0  0  0  0
  151.4670   94.7510  -24.3530 C   0  0  0  0  0  0  0  0  0  0  0  0
  152.4160   93.8990  -23.5630 C   0  0  0  0  0  0  0  0  0  0  0  0
  150.1830   94.3730  -24.3360 N   0  0  0  0  0  0  0  0  0  0  0  0
  150.3730   91.7110  -25.3690 O   0  0  0  0  0  0  0  0  0  0  0  0
  148.2030   89.9480  -24.6930 O   0  0  0  0  0  0  0  0  0  0  0  0
  148.1090   92.4070  -21.9710 O   0  0  0  0  0  0  0  0  0  0  0  0
  147.8200   89.0290  -22.2030 O   0  0  0  0  0  0  0  0  0  0  0  0
  151.8450   95.7360  -24.9790 O   0  0  0  0  0  0  0  0  0  0  0  0
  194.4430  102.5950   30.5350 C   0  0  0  0  0  0  0  0  0  0  0  0
  194.9280  102.6800   31.9800 C   0  0  1  0  0  0  0  0  0  0  0  0
  196.4290  102.9700   32.0100 C   0  0  2  0  0  0  0  0  0  0  0  0
  197.1860  101.9610   31.1520 C   0  0  1  0  0  0  0  0  0  0  0  0
  196.5710  101.8620   29.7560 C   0  0  1  0  0  0  0  0  0  0  0  0
  197.1780  100.7630   28.9150 C   0  0  0  0  0  0  0  0  0  0  0  0
  193.7400  103.5000   33.9660 C   0  0  0  0  0  0  0  0  0  0  0  0
  193.0120  104.6560   34.5810 C   0  0  0  0  0  0  0  0  0  0  0  0
  194.1970  103.6920   32.7250 N   0  0  0  0  0  0  0  0  0  0  0  0
  196.9070  102.9340   33.3510 O   0  0  0  0  0  0  0  0  0  0  0  0
  198.5480  102.3530   31.0310 O   0  0  0  0  0  0  0  0  0  0  0  0
  195.1680  101.5790   29.8480 O   0  0  0  0  0  0  0  0  0  0  0  0
  196.1810   99.8620   28.4510 O   0  0  0  0  0  0  0  0  0  0  0  0
  193.9020  102.4410   34.5620 O   0  0  0  0  0  0  0  0  0  0  0  0
  1 12  1  0  0  0  0
  2  9  1  6  0  0  0
  2  1  1  0  0  0  0
  3 10  1  1  0  0  0
  3  4  1  0  0  0  0
  3  2  1  0  0  0  0
  4 11  1  6  0  0  0
  4  5  1  0  0  0  0
  5  6  1  1  0  0  0
  5 12  1  0  0  0  0
  7  8  1  0  0  0  0
  7  9  1  0  0  0  0
 13  6  1  0  0  0  0
 14  7  2  0  0  0  0
 15 11  1  6  0  0  0
 16 23  1  1  0  0  0
 16 15  1  0  0  0  0
 17 24  1  6  0  0  0
 17 16  1  0  0  0  0
 18 25  1  1  0  0  0
 18 17  1  0  0  0  0
 18 19  1  0  0  0  0
 19 20  1  6  0  0  0
 19 26  1  0  0  0  0
 20 27  1  0  0  0  0
 21 22  1  0  0  0  0
 21 23  1  0  0  0  0
 26 15  1  0  0  0  0
 28 21  2  0  0  0  0
 29 40  1  0  0  0  0
 30 31  1  0  0  0  0
 30 29  1  0  0  0  0
 30 37  1  1  0  0  0
 31 38  1  6  0  0  0
 32 39  1  1  0  0  0
 32 31  1  0  0  0  0
 32 33  1  0  0  0  0
 33 34  1  6  0  0  0
 33 40  1  0  0  0  0
 35 37  1  0  0  0  0
 35 42  2  0  0  0  0
 36 35  1  0  0  0  0
 41 34  1  0  0  0  0
 43 38  1  1  0  0  0
 43 44  1  0  0  0  0
 44 51  1  6  0  0  0
 44 45  1  0  0  0  0
 45 52  1  1  0  0  0
 46 45  1  0  0  0  0
 46 53  1  6  0  0  0
 47 48  1  1  0  0  0
 47 46  1  0  0  0  0
 48 55  1  0  0  0  0
 49 50  1  0  0  0  0
 49 56  2  0  0  0  0
 51 49  1  0  0  0  0
 54 43  1  0  0  0  0
 54 47  1  0  0  0  0
 58 57  1  0  0  0  0
 58 65  1  1  0  0  0
 59 66  1  6  0  0  0
 59 58  1  0  0  0  0
 60 67  1  6  0  0  0
 60 61  1  0  0  0  0
 60 59  1  0  0  0  0
 61 62  1  6  0  0  0
 61 68  1  0  0  0  0
 62 69  1  0  0  0  0
 63 70  2  0  0  0  0
 64 63  1  0  0  0  0
 65 63  1  0  0  0  0
 68 57  1  0  0  0  0
 71 82  1  0  0  0  0
 71 67  1  1  0  0  0
 72 79  1  6  0  0  0
 72 71  1  0  0  0  0
 73 80  1  1  0  0  0
 73 74  1  0  0  0  0
 73 72  1  0  0  0  0
 74 81  1  6  0  0  0
 74 75  1  0  0  0  0
 75 82  1  0  0  0  0
 75 76  1  1  0  0  0
 77 79  1  0  0  0  0
 77 78  1  0  0  0  0
 83 76  1  0  0  0  0
 84 77  2  0  0  0  0
 85 86  1  0  0  0  0
 86 87  1  0  0  0  0
 86 93  1  1  0  0  0
 87 94  1  1  0  0  0
 88 95  1  6  0  0  0
 88 87  1  0  0  0  0
 89 90  1  6  0  0  0
 89 96  1  0  0  0  0
 89 88  1  0  0  0  0
 91 98  2  0  0  0  0
 91 92  1  0  0  0  0
 93 91  1  0  0  0  0
 96 85  1  0  0  0  0
 97 90  1  0  0  0  0
M  END
$$$$
