/Users/chinazoemeh/HopeMScP/data/ligands/ache/AChE_50_6WUZ/AChE_50_6WUZ.pdb
 OpenBabel07172512173D

 98101  0  0  1  0  0  0  0  0999 V2000
   29.2810   32.2760  345.0750 C   0  0  0  0  0  0  0  0  0  0  0  0
   28.4960   31.7720  343.8920 C   0  0  1  0  0  0  0  0  0  0  0  0
   28.1620   32.9060  342.8500 C   0  0  2  0  0  0  0  0  0  0  0  0
   27.5140   34.0770  343.5640 C   0  0  1  0  0  0  0  0  0  0  0  0
   28.4530   34.4510  344.7430 C   0  0  1  0  0  0  0  0  0  0  0  0
   27.9620   35.6310  345.5430 C   0  0  0  0  0  0  0  0  0  0  0  0
   28.8340   29.4330  343.0750 C   0  0  0  0  0  0  0  0  0  0  0  0
   27.4390   29.1010  343.6000 C   0  0  0  0  0  0  0  0  0  0  0  0
   29.2590   30.7060  343.2530 N   0  0  0  0  0  0  0  0  0  0  0  0
   27.2600   32.3510  341.8700 O   0  0  0  0  0  0  0  0  0  0  0  0
   27.3380   35.1460  342.6280 O   0  0  0  0  0  0  0  0  0  0  0  0
   28.5820   33.3840  345.6810 O   0  0  0  0  0  0  0  0  0  0  0  0
   26.6820   35.2600  346.0360 O   0  0  0  0  0  0  0  0  0  0  0  0
   29.5160   28.6070  342.5390 O   0  0  0  0  0  0  0  0  0  0  0  0
   26.0200   35.6950  342.8460 C   0  0  1  0  0  0  0  0  0  0  0  0
   26.0750   37.1390  342.3450 C   0  0  1  0  0  0  0  0  0  0  0  0
   24.7130   37.8240  342.4990 C   0  0  2  0  0  0  0  0  0  0  0  0
   23.5980   36.9560  341.9280 C   0  0  1  0  0  0  0  0  0  0  0  0
   23.6770   35.5480  342.5050 C   0  0  1  0  0  0  0  0  0  0  0  0
   22.6260   34.6090  341.9560 C   0  0  0  0  0  0  0  0  0  0  0  0
   28.3220   38.1140  342.5490 C   0  0  0  0  0  0  0  0  0  0  0  0
   29.2620   38.8990  343.4200 C   0  0  0  0  0  0  0  0  0  0  0  0
   27.1030   37.8870  343.0510 N   0  0  0  0  0  0  0  0  0  0  0  0
   24.7400   39.0820  341.8320 O   0  0  0  0  0  0  0  0  0  0  0  0
   22.3350   37.5260  342.2510 O   0  0  0  0  0  0  0  0  0  0  0  0
   24.9620   34.9900  342.1970 O   0  0  0  0  0  0  0  0  0  0  0  0
   22.8800   34.2740  340.5990 O   0  0  0  0  0  0  0  0  0  0  0  0
   28.6530   37.7080  341.4420 O   0  0  0  0  0  0  0  0  0  0  0  0
   -6.5860   85.8250  335.0690 C   0  0  0  0  0  0  0  0  0  0  0  0
   -6.1110   87.0470  334.2450 C   0  0  1  0  0  0  0  0  0  0  0  0
   -4.6100   87.2920  334.4340 C   0  0  2  0  0  0  0  0  0  0  0  0
   -4.2480   87.3140  335.9130 C   0  0  1  0  0  0  0  0  0  0  0  0
   -4.7690   86.0250  336.5510 C   0  0  1  0  0  0  0  0  0  0  0  0
   -4.4370   85.7980  338.0170 C   0  0  0  0  0  0  0  0  0  0  0  0
   -7.1070   87.7600  332.1010 C   0  0  0  0  0  0  0  0  0  0  0  0
   -7.5440   89.0060  332.8160 C   0  0  0  0  0  0  0  0  0  0  0  0
   -6.4240   86.8690  332.8330 N   0  0  0  0  0  0  0  0  0  0  0  0
   -4.2390   88.5280  333.8300 O   0  0  0  0  0  0  0  0  0  0  0  0
   -2.8390   87.4670  336.0520 O   0  0  0  0  0  0  0  0  0  0  0  0
   -6.1930   85.9730  336.4140 O   0  0  0  0  0  0  0  0  0  0  0  0
   -4.5800   86.9020  338.9060 O   0  0  0  0  0  0  0  0  0  0  0  0
   -7.3530   87.5730  330.9140 O   0  0  0  0  0  0  0  0  0  0  0  0
   -2.5280   88.5130  337.0070 C   0  0  1  0  0  0  0  0  0  0  0  0
   -1.1730   88.1380  337.5900 C   0  0  1  0  0  0  0  0  0  0  0  0
   -0.7540   89.1570  338.6470 C   0  0  2  0  0  0  0  0  0  0  0  0
   -0.8380   90.5780  338.0980 C   0  0  1  0  0  0  0  0  0  0  0  0
   -2.1880   90.8400  337.4300 C   0  0  1  0  0  0  0  0  0  0  0  0
   -2.2400   92.1710  336.7150 C   0  0  0  0  0  0  0  0  0  0  0  0
   -0.5890   85.7510  337.5990 C   0  0  0  0  0  0  0  0  0  0  0  0
   -0.7450   84.4430  338.3150 C   0  0  0  0  0  0  0  0  0  0  0  0
   -1.2090   86.7980  338.1530 N   0  0  0  0  0  0  0  0  0  0  0  0
    0.5820   88.8800  339.0500 O   0  0  0  0  0  0  0  0  0  0  0  0
   -0.6570   91.5140  339.1560 O   0  0  0  0  0  0  0  0  0  0  0  0
   -2.4620   89.8310  336.4460 O   0  0  0  0  0  0  0  0  0  0  0  0
   -1.4090   92.1740  335.5620 O   0  0  0  0  0  0  0  0  0  0  0  0
    0.0710   85.8550  336.5690 O   0  0  0  0  0  0  0  0  0  0  0  0
   26.5290   65.9830  368.8050 C   0  0  0  0  0  0  0  0  0  0  0  0
   27.7050   65.2550  369.3830 C   0  0  1  0  0  0  0  0  0  0  0  0
   27.1930   64.1140  370.2440 C   0  0  2  0  0  0  0  0  0  0  0  0
   26.2780   64.6630  371.3380 C   0  0  1  0  0  0  0  0  0  0  0  0
   25.2050   65.6060  370.7610 C   0  0  1  0  0  0  0  0  0  0  0  0
   24.5000   66.5040  371.7640 C   0  0  0  0  0  0  0  0  0  0  0  0
   29.7430   65.4190  368.0410 C   0  0  0  0  0  0  0  0  0  0  0  0
   30.5700   64.8110  366.9480 C   0  0  0  0  0  0  0  0  0  0  0  0
   28.6080   64.7780  368.3480 N   0  0  0  0  0  0  0  0  0  0  0  0
   28.2780   63.3800  370.7990 O   0  0  0  0  0  0  0  0  0  0  0  0
   25.6620   63.5620  371.9950 O   0  0  0  0  0  0  0  0  0  0  0  0
   25.7840   66.5280  369.8310 O   0  0  0  0  0  0  0  0  0  0  0  0
   24.3770   66.0250  373.0950 O   0  0  0  0  0  0  0  0  0  0  0  0
   30.0880   66.4430  368.6240 O   0  0  0  0  0  0  0  0  0  0  0  0
   26.0300   63.6980  373.3860 C   0  0  1  0  0  0  0  0  0  0  0  0
   25.0640   62.8520  374.2390 C   0  0  1  0  0  0  0  0  0  0  0  0
   25.7570   61.5770  374.7250 C   0  0  2  0  0  0  0  0  0  0  0  0
   26.9990   61.9020  375.5500 C   0  0  1  0  0  0  0  0  0  0  0  0
   27.6450   63.1830  375.0390 C   0  0  1  0  0  0  0  0  0  0  0  0
   29.1430   63.2260  375.2280 C   0  0  0  0  0  0  0  0  0  0  0  0
   23.2930   64.0340  375.4820 C   0  0  0  0  0  0  0  0  0  0  0  0
   22.3720   63.6640  374.3570 C   0  0  0  0  0  0  0  0  0  0  0  0
   24.5600   63.6190  375.3680 N   0  0  0  0  0  0  0  0  0  0  0  0
   26.1310   60.8100  373.5860 O   0  0  0  0  0  0  0  0  0  0  0  0
   26.6530   62.0590  376.9210 O   0  0  0  0  0  0  0  0  0  0  0  0
   27.3870   63.2940  373.6360 O   0  0  0  0  0  0  0  0  0  0  0  0
   29.8220   62.6330  374.1290 O   0  0  0  0  0  0  0  0  0  0  0  0
   22.9070   64.6810  376.4520 O   0  0  0  0  0  0  0  0  0  0  0  0
  -29.5130   71.7990  347.8520 C   0  0  0  0  0  0  0  0  0  0  0  0
  -28.3790   72.7890  348.0060 C   0  0  1  0  0  0  0  0  0  0  0  0
  -28.7990   74.0850  348.7430 C   0  0  2  0  0  0  0  0  0  0  0  0
  -30.1010   73.9240  349.5300 C   0  0  1  0  0  0  0  0  0  0  0  0
  -31.2350   73.3660  348.6510 C   0  0  1  0  0  0  0  0  0  0  0  0
  -31.9840   74.4730  347.9310 C   0  0  0  0  0  0  0  0  0  0  0  0
  -26.9120   72.0450  349.9150 C   0  0  0  0  0  0  0  0  0  0  0  0
  -25.6200   71.3720  350.1970 C   0  0  0  0  0  0  0  0  0  0  0  0
  -27.2000   72.1730  348.6090 N   0  0  0  0  0  0  0  0  0  0  0  0
  -28.8930   75.1190  347.7540 O   0  0  0  0  0  0  0  0  0  0  0  0
  -29.8660   73.0640  350.6470 O   0  0  0  0  0  0  0  0  0  0  0  0
  -30.7280   72.5040  347.6240 O   0  0  0  0  0  0  0  0  0  0  0  0
  -33.1290   73.9710  347.2560 O   0  0  0  0  0  0  0  0  0  0  0  0
  -27.6700   72.4460  350.8000 O   0  0  0  0  0  0  0  0  0  0  0  0
  1 12  1  0  0  0  0
  2  9  1  6  0  0  0
  2  1  1  0  0  0  0
  3 10  1  6  0  0  0
  3  4  1  0  0  0  0
  3  2  1  0  0  0  0
  4 11  1  6  0  0  0
  4  5  1  0  0  0  0
  5  6  1  1  0  0  0
  5 12  1  0  0  0  0
  6 13  1  0  0  0  0
  7  9  1  0  0  0  0
  7  8  1  0  0  0  0
 14  7  2  0  0  0  0
 15 11  1  6  0  0  0
 16 17  1  0  0  0  0
 16 15  1  0  0  0  0
 16 23  1  1  0  0  0
 17 24  1  6  0  0  0
 18 25  1  1  0  0  0
 18 17  1  0  0  0  0
 18 19  1  0  0  0  0
 19 20  1  6  0  0  0
 21 23  1  0  0  0  0
 21 22  1  0  0  0  0
 26 19  1  0  0  0  0
 26 15  1  0  0  0  0
 27 20  1  0  0  0  0
 28 21  2  0  0  0  0
 29 40  1  0  0  0  0
 30 37  1  6  0  0  0
 30 31  1  0  0  0  0
 30 29  1  0  0  0  0
 31 38  1  1  0  0  0
 31 32  1  0  0  0  0
 32 39  1  6  0  0  0
 32 33  1  0  0  0  0
 33 34  1  1  0  0  0
 34 41  1  0  0  0  0
 35 36  1  0  0  0  0
 35 37  1  0  0  0  0
 40 33  1  0  0  0  0
 42 35  2  0  0  0  0
 43 39  1  6  0  0  0
 43 44  1  0  0  0  0
 44 51  1  1  0  0  0
 44 45  1  0  0  0  0
 45 52  1  6  0  0  0
 46 45  1  0  0  0  0
 46 53  1  1  0  0  0
 47 48  1  6  0  0  0
 47 46  1  0  0  0  0
 49 51  1  0  0  0  0
 49 50  1  0  0  0  0
 54 43  1  0  0  0  0
 54 47  1  0  0  0  0
 55 48  1  0  0  0  0
 56 49  2  0  0  0  0
 57 58  1  0  0  0  0
 57 68  1  0  0  0  0
 58 65  1  6  0  0  0
 58 59  1  0  0  0  0
 59 66  1  1  0  0  0
 59 60  1  0  0  0  0
 60 67  1  6  0  0  0
 61 60  1  0  0  0  0
 61 62  1  1  0  0  0
 62 69  1  0  0  0  0
 63 65  1  0  0  0  0
 63 70  2  0  0  0  0
 64 63  1  0  0  0  0
 68 61  1  0  0  0  0
 71 67  1  6  0  0  0
 71 82  1  0  0  0  0
 71 72  1  0  0  0  0
 72 73  1  0  0  0  0
 72 79  1  1  0  0  0
 73 80  1  6  0  0  0
 73 74  1  0  0  0  0
 74 81  1  1  0  0  0
 75 76  1  6  0  0  0
 75 74  1  0  0  0  0
 77 84  2  0  0  0  0
 78 77  1  0  0  0  0
 79 77  1  0  0  0  0
 82 75  1  0  0  0  0
 83 76  1  0  0  0  0
 85 86  1  0  0  0  0
 86 93  1  1  0  0  0
 86 87  1  0  0  0  0
 87 94  1  6  0  0  0
 87 88  1  0  0  0  0
 88 95  1  1  0  0  0
 89 90  1  6  0  0  0
 89 88  1  0  0  0  0
 91 92  1  0  0  0  0
 91 98  2  0  0  0  0
 93 91  1  0  0  0  0
 96 85  1  0  0  0  0
 96 89  1  0  0  0  0
 97 90  1  0  0  0  0
M  END
$$$$
