/Users/chinazoemeh/HopeMScP/data/ligands/ache/AChE_28_8AEV/AChE_28_8AEV.pdb
 OpenBabel07172512173D

 84 87  0  0  1  0  0  0  0  0999 V2000
  197.3450  117.3360    7.2900 C   0  0  0  0  0  0  0  0  0  0  0  0
  197.6840  118.5860    6.4470 C   0  0  1  0  0  0  0  0  0  0  0  0
  198.2300  118.1650    5.0800 C   0  0  2  0  0  0  0  0  0  0  0  0
  199.4490  117.2640    5.2710 C   0  0  1  0  0  0  0  0  0  0  0  0
  199.0570  116.0600    6.1340 C   0  0  1  0  0  0  0  0  0  0  0  0
  200.2080  115.1350    6.4670 C   0  0  0  0  0  0  0  0  0  0  0  0
  195.3620  119.2580    5.7950 C   0  0  0  0  0  0  0  0  0  0  0  0
  194.3930  120.4080    5.7690 C   0  0  0  0  0  0  0  0  0  0  0  0
  196.5740  119.5310    6.3160 N   0  0  0  0  0  0  0  0  0  0  0  0
  198.5550  119.3100    4.2980 O   0  0  0  0  0  0  0  0  0  0  0  0
  199.9800  116.8490    4.0120 O   0  0  0  0  0  0  0  0  0  0  0  0
  198.5080  116.4950    7.3890 O   0  0  0  0  0  0  0  0  0  0  0  0
  201.3200  115.8350    7.0110 O   0  0  0  0  0  0  0  0  0  0  0  0
  195.0530  118.1320    5.3700 O   0  0  0  0  0  0  0  0  0  0  0  0
  201.4250  117.0050    3.8530 C   0  0  1  0  0  0  0  0  0  0  0  0
  201.8720  115.9950    2.7930 C   0  0  1  0  0  0  0  0  0  0  0  0
  203.3860  116.0600    2.5860 C   0  0  2  0  0  0  0  0  0  0  0  0
  203.8190  117.4870    2.2610 C   0  0  1  0  0  0  0  0  0  0  0  0
  203.3270  118.4450    3.3470 C   0  0  1  0  0  0  0  0  0  0  0  0
  203.6550  119.8880    3.0440 C   0  0  0  0  0  0  0  0  0  0  0  0
  200.6480  113.9200    2.3590 C   0  0  0  0  0  0  0  0  0  0  0  0
  200.3220  112.5390    2.8520 C   0  0  0  0  0  0  0  0  0  0  0  0
  201.4600  114.6440    3.1350 N   0  0  0  0  0  0  0  0  0  0  0  0
  203.7360  115.1750    1.5250 O   0  0  0  0  0  0  0  0  0  0  0  0
  205.2370  117.5900    2.1390 O   0  0  0  0  0  0  0  0  0  0  0  0
  201.8980  118.3510    3.4880 O   0  0  0  0  0  0  0  0  0  0  0  0
  205.0080  120.0120    2.6220 O   0  0  0  0  0  0  0  0  0  0  0  0
  200.1980  114.3600    1.3040 O   0  0  0  0  0  0  0  0  0  0  0  0
  218.1750   75.9960  -14.9100 C   0  0  0  0  0  0  0  0  0  0  0  0
  217.2560   74.8140  -15.2970 C   0  0  1  0  0  0  0  0  0  0  0  0
  217.6560   73.5220  -14.5550 C   0  0  2  0  0  0  0  0  0  0  0  0
  219.1700   73.3300  -14.4630 C   0  0  1  0  0  0  0  0  0  0  0  0
  219.8180   74.6320  -14.0250 C   0  0  1  0  0  0  0  0  0  0  0  0
  221.3220   74.5860  -13.8900 C   0  0  0  0  0  0  0  0  0  0  0  0
  214.8630   75.0920  -15.8600 C   0  0  0  0  0  0  0  0  0  0  0  0
  215.2160   74.6210  -17.2460 C   0  0  0  0  0  0  0  0  0  0  0  0
  215.8740   75.1570  -14.9860 N   0  0  0  0  0  0  0  0  0  0  0  0
  217.0500   72.4090  -15.2050 O   0  0  0  0  0  0  0  0  0  0  0  0
  219.4630   72.3520  -13.4730 O   0  0  0  0  0  0  0  0  0  0  0  0
  219.5130   75.6130  -15.0110 O   0  0  0  0  0  0  0  0  0  0  0  0
  221.7410   74.9760  -12.5890 O   0  0  0  0  0  0  0  0  0  0  0  0
  213.7130   75.4050  -15.5460 O   0  0  0  0  0  0  0  0  0  0  0  0
  219.9320   71.1130  -14.0230 C   0  0  1  0  0  0  0  0  0  0  0  0
  221.4510   71.2070  -14.1970 C   0  0  1  0  0  0  0  0  0  0  0  0
  222.1840   70.3630  -13.1460 C   0  0  2  0  0  0  0  0  0  0  0  0
  221.7370   68.9030  -13.1610 C   0  0  1  0  0  0  0  0  0  0  0  0
  220.2510   68.7910  -13.4820 C   0  0  1  0  0  0  0  0  0  0  0  0
  219.5600   67.7070  -12.6800 C   0  0  0  0  0  0  0  0  0  0  0  0
  222.2610   71.7450  -16.4580 C   0  0  0  0  0  0  0  0  0  0  0  0
  222.6510   71.1950  -17.7980 C   0  0  0  0  0  0  0  0  0  0  0  0
  221.8640   70.8470  -15.5470 N   0  0  0  0  0  0  0  0  0  0  0  0
  221.9360   70.9320  -11.8630 O   0  0  0  0  0  0  0  0  0  0  0  0
  222.4930   68.1410  -14.0960 O   0  0  0  0  0  0  0  0  0  0  0  0
  219.6100   70.0300  -13.1480 O   0  0  0  0  0  0  0  0  0  0  0  0
  218.1730   67.6040  -12.9770 O   0  0  0  0  0  0  0  0  0  0  0  0
  222.3090   72.9470  -16.2100 O   0  0  0  0  0  0  0  0  0  0  0  0
  147.8860   97.1510  -17.3050 C   0  0  0  0  0  0  0  0  0  0  0  0
  148.1220   95.6670  -17.1300 C   0  0  1  0  0  0  0  0  0  0  0  0
  149.1900   95.2030  -18.1140 C   0  0  2  0  0  0  0  0  0  0  0  0
  148.6810   95.4400  -19.5340 C   0  0  1  0  0  0  0  0  0  0  0  0
  148.3130   96.9300  -19.7250 C   0  0  1  0  0  0  0  0  0  0  0  0
  147.5920   97.2230  -21.0290 C   0  0  0  0  0  0  0  0  0  0  0  0
  147.6260   94.6900  -14.9280 C   0  0  0  0  0  0  0  0  0  0  0  0
  146.2990   94.2600  -15.5150 C   0  0  0  0  0  0  0  0  0  0  0  0
  148.4640   95.3390  -15.7540 N   0  0  0  0  0  0  0  0  0  0  0  0
  149.5150   93.8310  -17.9050 O   0  0  0  0  0  0  0  0  0  0  0  0
  149.6400   94.9770  -20.4890 O   0  0  0  0  0  0  0  0  0  0  0  0
  147.4450   97.4120  -18.6720 O   0  0  0  0  0  0  0  0  0  0  0  0
  146.9210   96.0700  -21.5410 O   0  0  0  0  0  0  0  0  0  0  0  0
  147.9280   94.4440  -13.7640 O   0  0  0  0  0  0  0  0  0  0  0  0
  149.1330   94.0320  -21.5180 C   0  0  1  0  0  0  0  0  0  0  0  0
  150.2340   93.8420  -22.5690 C   0  0  1  0  0  0  0  0  0  0  0  0
  149.7010   92.9990  -23.7260 C   0  0  2  0  0  0  0  0  0  0  0  0
  149.1660   91.6650  -23.2130 C   0  0  1  0  0  0  0  0  0  0  0  0
  148.1660   91.8610  -22.0640 C   0  0  1  0  0  0  0  0  0  0  0  0
  147.7700   90.5600  -21.4020 C   0  0  0  0  0  0  0  0  0  0  0  0
  152.0360   95.4200  -23.1060 C   0  0  0  0  0  0  0  0  0  0  0  0
  152.9940   94.3410  -22.6570 C   0  0  0  0  0  0  0  0  0  0  0  0
  150.7340   95.1200  -23.0460 N   0  0  0  0  0  0  0  0  0  0  0  0
  150.7470   92.7800  -24.6680 O   0  0  0  0  0  0  0  0  0  0  0  0
  148.5440   90.9420  -24.2740 O   0  0  0  0  0  0  0  0  0  0  0  0
  148.7050   92.7080  -21.0260 O   0  0  0  0  0  0  0  0  0  0  0  0
  148.0250   90.5950  -20.0040 O   0  0  0  0  0  0  0  0  0  0  0  0
  152.4230   96.5090  -23.5040 O   0  0  0  0  0  0  0  0  0  0  0  0
  1 12  1  0  0  0  0
  2  9  1  6  0  0  0
  2  1  1  0  0  0  0
  3 10  1  6  0  0  0
  3  4  1  0  0  0  0
  3  2  1  0  0  0  0
  4 11  1  6  0  0  0
  4  5  1  0  0  0  0
  5  6  1  1  0  0  0
  5 12  1  0  0  0  0
  6 13  1  0  0  0  0
  7  9  1  0  0  0  0
  8  7  1  0  0  0  0
 14  7  2  0  0  0  0
 15 11  1  6  0  0  0
 16 23  1  1  0  0  0
 16 15  1  0  0  0  0
 17 24  1  6  0  0  0
 17 16  1  0  0  0  0
 18 25  1  1  0  0  0
 18 17  1  0  0  0  0
 18 19  1  0  0  0  0
 19 20  1  6  0  0  0
 19 26  1  0  0  0  0
 21 22  1  0  0  0  0
 21 23  1  0  0  0  0
 26 15  1  0  0  0  0
 27 20  1  0  0  0  0
 28 21  2  0  0  0  0
 30 37  1  1  0  0  0
 30 29  1  0  0  0  0
 30 31  1  0  0  0  0
 31 38  1  6  0  0  0
 31 32  1  0  0  0  0
 32 33  1  0  0  0  0
 32 39  1  1  0  0  0
 33 34  1  6  0  0  0
 34 41  1  0  0  0  0
 35 42  2  0  0  0  0
 35 37  1  0  0  0  0
 36 35  1  0  0  0  0
 40 29  1  0  0  0  0
 40 33  1  0  0  0  0
 43 39  1  1  0  0  0
 43 54  1  0  0  0  0
 44 51  1  6  0  0  0
 44 43  1  0  0  0  0
 44 45  1  0  0  0  0
 45 52  1  1  0  0  0
 46 53  1  6  0  0  0
 46 45  1  0  0  0  0
 47 46  1  0  0  0  0
 47 54  1  0  0  0  0
 47 48  1  1  0  0  0
 49 56  2  0  0  0  0
 49 51  1  0  0  0  0
 50 49  1  0  0  0  0
 55 48  1  0  0  0  0
 57 58  1  0  0  0  0
 58 65  1  1  0  0  0
 59 66  1  6  0  0  0
 59 58  1  0  0  0  0
 60 67  1  6  0  0  0
 60 59  1  0  0  0  0
 61 62  1  6  0  0  0
 61 60  1  0  0  0  0
 61 68  1  0  0  0  0
 63 70  2  0  0  0  0
 64 63  1  0  0  0  0
 65 63  1  0  0  0  0
 68 57  1  0  0  0  0
 69 62  1  0  0  0  0
 71 82  1  0  0  0  0
 71 67  1  1  0  0  0
 72 79  1  6  0  0  0
 72 71  1  0  0  0  0
 73 80  1  6  0  0  0
 73 74  1  0  0  0  0
 73 72  1  0  0  0  0
 74 81  1  6  0  0  0
 74 75  1  0  0  0  0
 75 76  1  1  0  0  0
 75 82  1  0  0  0  0
 76 83  1  0  0  0  0
 77 79  1  0  0  0  0
 77 78  1  0  0  0  0
 84 77  2  0  0  0  0
M  END
$$$$
