/Users/chinazoemeh/HopeMScP/data/ligands/ache/AChE_61_4M0F/AChE_61_4M0F.pdb
 OpenBabel07172512173D

 70 72  0  0  1  0  0  0  0  0999 V2000
  -23.1130  -58.6660   21.7390 C   0  0  0  0  0  0  0  0  0  0  0  0
  -23.9930  -59.2050   20.5890 C   0  0  1  0  0  0  0  0  0  0  0  0
  -24.4720  -58.0660   19.6850 C   0  0  2  0  0  0  0  0  0  0  0  0
  -25.1010  -56.9610   20.5200 C   0  0  1  0  0  0  0  0  0  0  0  0
  -24.0830  -56.5110   21.5550 C   0  0  1  0  0  0  0  0  0  0  0  0
  -24.5550  -55.3690   22.4270 C   0  0  0  0  0  0  0  0  0  0  0  0
  -23.7110  -61.4490   19.6230 C   0  0  0  0  0  0  0  0  0  0  0  0
  -25.0540  -61.7790   20.2190 C   0  0  0  0  0  0  0  0  0  0  0  0
  -23.2670  -60.2010   19.8190 N   0  0  0  0  0  0  0  0  0  0  0  0
  -25.4200  -58.5700   18.7530 O   0  0  0  0  0  0  0  0  0  0  0  0
  -25.4920  -55.8670   19.7010 O   0  0  0  0  0  0  0  0  0  0  0  0
  -23.7920  -57.6210   22.4160 O   0  0  0  0  0  0  0  0  0  0  0  0
  -25.6970  -55.7190   23.1960 O   0  0  0  0  0  0  0  0  0  0  0  0
  -23.0630  -62.2740   18.9830 O   0  0  0  0  0  0  0  0  0  0  0  0
  -26.7910  -55.2230   19.6180 C   0  0  1  0  0  0  0  0  0  0  0  0
  -26.6130  -53.7320   19.3150 C   0  0  1  0  0  0  0  0  0  0  0  0
  -27.9500  -52.9950   19.4670 C   0  0  2  0  0  0  0  0  0  0  0  0
  -29.0410  -53.6790   18.6440 C   0  0  1  0  0  0  0  0  0  0  0  0
  -29.0980  -55.1750   18.9620 C   0  0  1  0  0  0  0  0  0  0  0  0
  -30.0630  -55.9320   18.0770 C   0  0  0  0  0  0  0  0  0  0  0  0
  -24.4710  -52.5860   19.7180 C   0  0  0  0  0  0  0  0  0  0  0  0
  -23.5200  -52.0610   20.7590 C   0  0  0  0  0  0  0  0  0  0  0  0
  -25.5960  -53.1500   20.1800 N   0  0  0  0  0  0  0  0  0  0  0  0
  -27.7930  -51.6420   19.0500 O   0  0  0  0  0  0  0  0  0  0  0  0
  -30.3220  -53.1030   18.8950 O   0  0  0  0  0  0  0  0  0  0  0  0
  -27.8040  -55.7690   18.7680 O   0  0  0  0  0  0  0  0  0  0  0  0
  -29.9250  -57.3370   18.2420 O   0  0  0  0  0  0  0  0  0  0  0  0
  -24.2320  -52.4990   18.5130 O   0  0  0  0  0  0  0  0  0  0  0  0
   24.8290  -53.5300  -12.3970 C   0  0  0  0  0  0  0  0  0  0  0  0
   25.5370  -52.4480  -11.5660 C   0  0  1  0  0  0  0  0  0  0  0  0
   24.9100  -51.0770  -11.8270 C   0  0  2  0  0  0  0  0  0  0  0  0
   24.9550  -50.7770  -13.3180 C   0  0  1  0  0  0  0  0  0  0  0  0
   24.1860  -51.8730  -14.0460 C   0  0  1  0  0  0  0  0  0  0  0  0
   24.1320  -51.6860  -15.5460 C   0  0  0  0  0  0  0  0  0  0  0  0
   26.6200  -52.9420   -9.4220 C   0  0  0  0  0  0  0  0  0  0  0  0
   27.9230  -52.7480  -10.1460 C   0  0  0  0  0  0  0  0  0  0  0  0
   25.5100  -52.7720  -10.1500 N   0  0  0  0  0  0  0  0  0  0  0  0
   25.5990  -50.0720  -11.0930 O   0  0  0  0  0  0  0  0  0  0  0  0
   24.4350  -49.4850  -13.6190 O   0  0  0  0  0  0  0  0  0  0  0  0
   24.8150  -53.1410  -13.7930 O   0  0  0  0  0  0  0  0  0  0  0  0
   25.3980  -51.8950  -16.1550 O   0  0  0  0  0  0  0  0  0  0  0  0
   26.5770  -53.2280   -8.2290 O   0  0  0  0  0  0  0  0  0  0  0  0
   25.1630  -48.5060  -14.5410 C   0  0  1  0  0  0  0  0  0  0  0  0
   23.9720  -47.6460  -15.0020 C   0  0  1  0  0  0  0  0  0  0  0  0
   24.3920  -46.6630  -16.1120 C   0  0  2  0  0  0  0  0  0  0  0  0
   25.6510  -45.8930  -15.7260 C   0  0  1  0  0  0  0  0  0  0  0  0
   26.7430  -46.8760  -15.3110 C   0  0  1  0  0  0  0  0  0  0  0  0
   28.0180  -46.2070  -14.8520 C   0  0  0  0  0  0  0  0  0  0  0  0
   21.6500  -48.4700  -14.9630 C   0  0  0  0  0  0  0  0  0  0  0  0
   21.3980  -47.4550  -13.8870 C   0  0  0  0  0  0  0  0  0  0  0  0
   22.8910  -48.5040  -15.4620 N   0  0  0  0  0  0  0  0  0  0  0  0
   23.3330  -45.7420  -16.3550 O   0  0  0  0  0  0  0  0  0  0  0  0
   26.0950  -45.0750  -16.8060 O   0  0  0  0  0  0  0  0  0  0  0  0
   26.2720  -47.6600  -14.2050 O   0  0  0  0  0  0  0  0  0  0  0  0
   28.7160  -47.0400  -13.9370 O   0  0  0  0  0  0  0  0  0  0  0  0
   20.7680  -49.2210  -15.3710 O   0  0  0  0  0  0  0  0  0  0  0  0
   -8.7800  -35.8050  -47.2860 C   0  0  0  0  0  0  0  0  0  0  0  0
  -10.2900  -35.5630  -47.3020 C   0  0  1  0  0  0  0  0  0  0  0  0
  -10.9520  -36.4260  -48.3730 C   0  0  2  0  0  0  0  0  0  0  0  0
  -10.3560  -36.1240  -49.7420 C   0  0  1  0  0  0  0  0  0  0  0  0
   -8.8350  -36.3280  -49.7340 C   0  0  1  0  0  0  0  0  0  0  0  0
   -8.1830  -35.8340  -51.0150 C   0  0  0  0  0  0  0  0  0  0  0  0
  -11.1100  -34.8600  -45.0950 C   0  0  0  0  0  0  0  0  0  0  0  0
  -11.7750  -35.3010  -43.8170 C   0  0  0  0  0  0  0  0  0  0  0  0
  -10.8910  -35.8190  -46.0030 N   0  0  0  0  0  0  0  0  0  0  0  0
  -12.3550  -36.1830  -48.3900 O   0  0  0  0  0  0  0  0  0  0  0  0
  -10.9820  -36.9330  -50.7340 O   0  0  0  0  0  0  0  0  0  0  0  0
   -8.2280  -35.5900  -48.6490 O   0  0  0  0  0  0  0  0  0  0  0  0
   -6.9000  -36.4030  -51.2470 O   0  0  0  0  0  0  0  0  0  0  0  0
  -10.7720  -33.6900  -45.2880 O   0  0  0  0  0  0  0  0  0  0  0  0
  1 12  1  0  0  0  0
  2  9  1  6  0  0  0
  2  1  1  0  0  0  0
  3 10  1  6  0  0  0
  3  4  1  0  0  0  0
  3  2  1  0  0  0  0
  4 11  1  6  0  0  0
  4  5  1  0  0  0  0
  5 12  1  0  0  0  0
  5  6  1  1  0  0  0
  6 13  1  0  0  0  0
  7  9  1  0  0  0  0
  7  8  1  0  0  0  0
 14  7  2  0  0  0  0
 15 11  1  6  0  0  0
 16 17  1  0  0  0  0
 16 15  1  0  0  0  0
 16 23  1  1  0  0  0
 17 24  1  6  0  0  0
 18 25  1  1  0  0  0
 18 19  1  0  0  0  0
 18 17  1  0  0  0  0
 19 20  1  6  0  0  0
 20 27  1  0  0  0  0
 21 23  1  0  0  0  0
 21 22  1  0  0  0  0
 26 19  1  0  0  0  0
 26 15  1  0  0  0  0
 28 21  2  0  0  0  0
 29 30  1  0  0  0  0
 30 37  1  1  0  0  0
 31 30  1  0  0  0  0
 31 38  1  1  0  0  0
 32 39  1  1  0  0  0
 32 31  1  0  0  0  0
 33 34  1  6  0  0  0
 33 40  1  0  0  0  0
 33 32  1  0  0  0  0
 35 42  2  0  0  0  0
 36 35  1  0  0  0  0
 37 35  1  0  0  0  0
 40 29  1  0  0  0  0
 41 34  1  0  0  0  0
 43 54  1  0  0  0  0
 43 39  1  1  0  0  0
 44 51  1  6  0  0  0
 44 43  1  0  0  0  0
 45 52  1  1  0  0  0
 45 46  1  0  0  0  0
 45 44  1  0  0  0  0
 46 53  1  6  0  0  0
 46 47  1  0  0  0  0
 47 48  1  1  0  0  0
 47 54  1  0  0  0  0
 48 55  1  0  0  0  0
 49 50  1  0  0  0  0
 51 49  1  0  0  0  0
 56 49  2  0  0  0  0
 58 57  1  0  0  0  0
 58 65  1  1  0  0  0
 59 66  1  6  0  0  0
 59 58  1  0  0  0  0
 60 67  1  6  0  0  0
 60 61  1  0  0  0  0
 60 59  1  0  0  0  0
 61 62  1  6  0  0  0
 61 68  1  0  0  0  0
 63 64  1  0  0  0  0
 65 63  1  0  0  0  0
 68 57  1  0  0  0  0
 69 62  1  0  0  0  0
 70 63  2  0  0  0  0
M  END
$$$$
