/Users/chinazoemeh/HopeMScP/data/ligands/ache/AChE_20_6O5S/AChE_20_6O5S.pdb
 OpenBabel07172512173D

 26 22  0  0  0  0  0  0  0  0999 V2000
   27.4300  -23.3500  -16.8920 P   0  0  1  0  0  0  0  0  0  0  0  0
   28.8870  -23.0180  -17.0980 O   0  0  0  0  0  0  0  0  0  0  0  0
   27.2130  -23.9630  -15.3790 O   0  0  0  0  0  0  0  0  0  0  0  0
   26.4150  -21.8030  -17.0910 C   0  0  0  0  0  0  0  0  0  0  0  0
   28.2940  -23.9450  -14.4930 C   0  0  0  0  0  0  0  0  0  0  0  0
   28.0170  -22.9610  -13.3590 C   0  0  0  0  0  0  0  0  0  0  0  0
   30.1230  -27.1620  -14.6530 P   0  0  2  0  0  0  0  0  0  0  0  0
   29.3180  -26.7350  -15.8570 O   0  0  0  0  0  0  0  0  0  0  0  0
   29.3730  -26.6710  -13.2690 O   0  0  0  0  0  0  0  0  0  0  0  0
   31.8180  -26.4000  -14.7430 C   0  0  0  0  0  0  0  0  0  0  0  0
   29.8440  -27.1400  -12.0370 C   0  0  0  0  0  0  0  0  0  0  0  0
   30.4680  -25.9810  -11.2600 C   0  0  0  0  0  0  0  0  0  0  0  0
   30.2350  -28.6670  -14.6530 O   0  0  0  0  0  0  0  0  0  0  0  0
   34.0350  -12.1390   19.9460 P   0  0  1  0  0  0  0  0  0  0  0  0
   34.3970  -13.5420   20.3690 O   0  0  0  0  0  0  0  0  0  0  0  0
   34.5980  -11.8700   18.4210 O   0  0  0  0  0  0  0  0  0  0  0  0
   32.1840  -11.9550   19.9840 C   0  0  0  0  0  0  0  0  0  0  0  0
   33.7720  -12.1990   17.3420 C   0  0  0  0  0  0  0  0  0  0  0  0
   34.5450  -13.0540   16.3390 C   0  0  0  0  0  0  0  0  0  0  0  0
   38.4360  -12.3620   17.4410 P   0  0  1  0  0  0  0  0  0  0  0  0
   39.7210  -11.5770   17.3230 O   0  0  0  0  0  0  0  0  0  0  0  0
   38.2300  -13.3020   16.1020 O   0  0  0  0  0  0  0  0  0  0  0  0
   38.4940  -13.4440   18.9510 C   0  0  0  0  0  0  0  0  0  0  0  0
   38.1090  -12.6770   14.8560 C   0  0  0  0  0  0  0  0  0  0  0  0
   37.2750  -13.5570   13.9290 C   0  0  0  0  0  0  0  0  0  0  0  0
   37.2760  -11.4070   17.5710 O   0  0  0  0  0  0  0  0  0  0  0  0
  1  4  1  1  0  0  0
  1  3  1  0  0  0  0
  2  1  1  0  0  0  0
  3  5  1  0  0  0  0
  5  6  1  0  0  0  0
  7 10  1  6  0  0  0
  7 13  1  0  0  0  0
  7  9  1  0  0  0  0
  8  7  2  0  0  0  0
  9 11  1  0  0  0  0
 11 12  1  0  0  0  0
 14 17  1  6  0  0  0
 14 15  1  0  0  0  0
 16 14  1  0  0  0  0
 18 16  1  0  0  0  0
 19 18  1  0  0  0  0
 20 26  1  0  0  0  0
 20 23  1  1  0  0  0
 21 20  2  0  0  0  0
 22 20  1  0  0  0  0
 24 22  1  0  0  0  0
 25 24  1  0  0  0  0
M  END
$$$$
