/Users/chinazoemeh/HopeMScP/data/ligands/ache/AChE_55_8AEN/AChE_55_8AEN.pdb
 OpenBabel07172512173D

 99102  0  0  1  0  0  0  0  0999 V2000
 -196.6680 -116.6020    9.4060 C   0  0  0  0  0  0  0  0  0  0  0  0
 -197.1610 -117.7780    8.5480 C   0  0  1  0  0  0  0  0  0  0  0  0
 -197.6620 -117.2620    7.2050 C   0  0  2  0  0  0  0  0  0  0  0  0
 -198.7670 -116.2360    7.4310 C   0  0  1  0  0  0  0  0  0  0  0  0
 -198.2990 -115.1230    8.3780 C   0  0  1  0  0  0  0  0  0  0  0  0
 -199.4250 -114.2140    8.8200 C   0  0  0  0  0  0  0  0  0  0  0  0
 -194.9500 -118.6650    7.8280 C   0  0  0  0  0  0  0  0  0  0  0  0
 -194.1030 -119.9060    7.7360 C   0  0  0  0  0  0  0  0  0  0  0  0
 -196.1660 -118.8330    8.3710 N   0  0  0  0  0  0  0  0  0  0  0  0
 -198.1330 -118.3520    6.4180 O   0  0  0  0  0  0  0  0  0  0  0  0
 -199.1770 -115.6610    6.1920 O   0  0  0  0  0  0  0  0  0  0  0  0
 -197.7320 -115.6660    9.5840 O   0  0  0  0  0  0  0  0  0  0  0  0
 -200.5450 -114.9690    9.2660 O   0  0  0  0  0  0  0  0  0  0  0  0
 -194.5370 -117.5580    7.4410 O   0  0  0  0  0  0  0  0  0  0  0  0
 -200.5790 -115.9130    5.9380 C   0  0  1  0  0  0  0  0  0  0  0  0
 -201.0150 -114.9680    4.8290 C   0  0  1  0  0  0  0  0  0  0  0  0
 -202.4900 -115.1740    4.5060 C   0  0  2  0  0  0  0  0  0  0  0  0
 -202.7530 -116.6350    4.1570 C   0  0  1  0  0  0  0  0  0  0  0  0
 -202.2380 -117.5500    5.2710 C   0  0  1  0  0  0  0  0  0  0  0  0
 -202.3300 -119.0160    4.9230 C   0  0  0  0  0  0  0  0  0  0  0  0
 -200.0340 -112.7780    4.3860 C   0  0  0  0  0  0  0  0  0  0  0  0
 -199.8350 -111.3720    4.8780 C   0  0  0  0  0  0  0  0  0  0  0  0
 -200.7480 -113.5830    5.1770 N   0  0  0  0  0  0  0  0  0  0  0  0
 -202.8310 -114.3270    3.4140 O   0  0  0  0  0  0  0  0  0  0  0  0
 -204.1450 -116.8710    3.9590 O   0  0  0  0  0  0  0  0  0  0  0  0
 -200.8520 -117.2810    5.5450 O   0  0  0  0  0  0  0  0  0  0  0  0
 -203.6310 -119.5180    5.1880 O   0  0  0  0  0  0  0  0  0  0  0  0
 -199.5670 -113.1690    3.3190 O   0  0  0  0  0  0  0  0  0  0  0  0
 -217.3440  -74.8430  -12.6660 C   0  0  0  0  0  0  0  0  0  0  0  0
 -216.6320  -73.4740  -12.9080 C   0  0  1  0  0  0  0  0  0  0  0  0
 -217.2750  -72.3360  -12.0880 C   0  0  2  0  0  0  0  0  0  0  0  0
 -218.7980  -72.3850  -12.0860 C   0  0  1  0  0  0  0  0  0  0  0  0
 -219.2620  -73.8050  -11.7850 C   0  0  1  0  0  0  0  0  0  0  0  0
 -220.7630  -73.9700  -11.7920 C   0  0  0  0  0  0  0  0  0  0  0  0
 -214.2130  -73.2070  -13.3830 C   0  0  0  0  0  0  0  0  0  0  0  0
 -214.6080  -72.6760  -14.7340 C   0  0  0  0  0  0  0  0  0  0  0  0
 -215.2170  -73.5770  -12.5760 N   0  0  0  0  0  0  0  0  0  0  0  0
 -216.8360  -71.0890  -12.6190 O   0  0  0  0  0  0  0  0  0  0  0  0
 -219.3030  -71.5160  -11.0730 O   0  0  0  0  0  0  0  0  0  0  0  0
 -218.7360  -74.6860  -12.7830 O   0  0  0  0  0  0  0  0  0  0  0  0
 -221.2080  -74.7160  -10.6660 O   0  0  0  0  0  0  0  0  0  0  0  0
 -213.0340  -73.3140  -13.0400 O   0  0  0  0  0  0  0  0  0  0  0  0
 -219.6080  -70.1670  -11.4930 C   0  0  1  0  0  0  0  0  0  0  0  0
 -221.1180  -70.0340  -11.7830 C   0  0  1  0  0  0  0  0  0  0  0  0
 -221.5060  -68.5830  -12.1080 C   0  0  2  0  0  0  0  0  0  0  0  0
 -221.0380  -67.6620  -10.9880 C   0  0  1  0  0  0  0  0  0  0  0  0
 -219.5300  -67.8060  -10.8160 C   0  0  1  0  0  0  0  0  0  0  0  0
 -218.9780  -66.9420   -9.7000 C   0  0  0  0  0  0  0  0  0  0  0  0
 -221.2850  -71.1540  -14.0660 C   0  0  0  0  0  0  0  0  0  0  0  0
 -220.2250  -70.2430  -14.6330 C   0  0  0  0  0  0  0  0  0  0  0  0
 -221.6350  -70.9860  -12.7710 N   0  0  0  0  0  0  0  0  0  0  0  0
 -222.9160  -68.4690  -12.2660 O   0  0  0  0  0  0  0  0  0  0  0  0
 -221.3890  -66.3050  -11.2420 O   0  0  0  0  0  0  0  0  0  0  0  0
 -219.2030  -69.1740  -10.5010 O   0  0  0  0  0  0  0  0  0  0  0  0
 -218.9410  -65.5650  -10.0530 O   0  0  0  0  0  0  0  0  0  0  0  0
 -221.8190  -72.0190  -14.7600 O   0  0  0  0  0  0  0  0  0  0  0  0
 -158.9150 -140.8570  -41.5910 C   0  0  2  0  0  0  0  0  0  0  0  0
 -159.9490 -141.3090  -40.5760 C   0  0  1  0  0  0  0  0  0  0  0  0
 -161.3120 -140.7510  -40.9740 C   0  0  2  0  0  0  0  0  0  0  0  0
 -161.2460 -139.2300  -41.0800 C   0  0  1  0  0  0  0  0  0  0  0  0
 -160.0720 -138.7780  -41.9660 C   0  0  1  0  0  0  0  0  0  0  0  0
 -159.7810 -137.2980  -41.8810 C   0  0  0  0  0  0  0  0  0  0  0  0
 -159.3640 -143.4400  -39.4970 C   0  0  0  0  0  0  0  0  0  0  0  0
 -158.6480 -142.6170  -38.4610 C   0  0  0  0  0  0  0  0  0  0  0  0
 -159.9820 -142.7590  -40.4720 N   0  0  0  0  0  0  0  0  0  0  0  0
 -157.6930 -141.5180  -41.4450 O   0  0  0  0  0  0  0  0  0  0  0  0
 -162.3070 -141.1310  -40.0330 O   0  0  0  0  0  0  0  0  0  0  0  0
 -162.4900 -138.7500  -41.5890 O   0  0  0  0  0  0  0  0  0  0  0  0
 -158.8450 -139.4300  -41.5870 O   0  0  0  0  0  0  0  0  0  0  0  0
 -160.9180 -136.4930  -42.1540 O   0  0  0  0  0  0  0  0  0  0  0  0
 -159.3910 -144.6670  -39.4480 O   0  0  0  0  0  0  0  0  0  0  0  0
 -147.0700  -96.5540  -14.2360 C   0  0  0  0  0  0  0  0  0  0  0  0
 -147.2350  -95.0450  -14.2750 C   0  0  1  0  0  0  0  0  0  0  0  0
 -148.2360  -94.6670  -15.3570 C   0  0  2  0  0  0  0  0  0  0  0  0
 -147.7440  -95.1800  -16.7070 C   0  0  1  0  0  0  0  0  0  0  0  0
 -147.4300  -96.6900  -16.6310 C   0  0  1  0  0  0  0  0  0  0  0  0
 -146.7010  -97.2420  -17.8400 C   0  0  0  0  0  0  0  0  0  0  0  0
 -146.8140  -93.7050  -12.2580 C   0  0  0  0  0  0  0  0  0  0  0  0
 -145.4580  -93.4010  -12.8570 C   0  0  0  0  0  0  0  0  0  0  0  0
 -147.6190  -94.5000  -12.9820 N   0  0  0  0  0  0  0  0  0  0  0  0
 -148.4390  -93.2570  -15.3950 O   0  0  0  0  0  0  0  0  0  0  0  0
 -148.7410  -94.8830  -17.6850 O   0  0  0  0  0  0  0  0  0  0  0  0
 -146.5930  -97.0110  -15.5020 O   0  0  0  0  0  0  0  0  0  0  0  0
 -146.6410  -96.3410  -18.9360 O   0  0  0  0  0  0  0  0  0  0  0  0
 -147.1610  -93.2490  -11.1700 O   0  0  0  0  0  0  0  0  0  0  0  0
 -148.2980  -93.9440  -18.7370 C   0  0  1  0  0  0  0  0  0  0  0  0
 -149.3770  -93.9280  -19.8220 C   0  0  1  0  0  0  0  0  0  0  0  0
 -148.8770  -93.1270  -21.0220 C   0  0  2  0  0  0  0  0  0  0  0  0
 -148.4480  -91.7240  -20.5900 C   0  0  1  0  0  0  0  0  0  0  0  0
 -147.5010  -91.7550  -19.3770 C   0  0  1  0  0  0  0  0  0  0  0  0
 -147.2260  -90.3800  -18.8060 C   0  0  0  0  0  0  0  0  0  0  0  0
 -151.0240  -95.6590  -20.3930 C   0  0  0  0  0  0  0  0  0  0  0  0
 -152.0770  -94.6020  -20.1790 C   0  0  0  0  0  0  0  0  0  0  0  0
 -149.7540  -95.2770  -20.2150 N   0  0  0  0  0  0  0  0  0  0  0  0
 -149.9110  -93.0680  -22.0010 O   0  0  0  0  0  0  0  0  0  0  0  0
 -147.7960  -91.0460  -21.6630 O   0  0  0  0  0  0  0  0  0  0  0  0
 -148.0340  -92.5600  -18.3040 O   0  0  0  0  0  0  0  0  0  0  0  0
 -147.2160  -90.3870  -17.3850 O   0  0  0  0  0  0  0  0  0  0  0  0
 -151.3100  -96.8020  -20.7180 O   0  0  0  0  0  0  0  0  0  0  0  0
  1 12  1  0  0  0  0
  2  9  1  6  0  0  0
  2  1  1  0  0  0  0
  3 10  1  6  0  0  0
  3  4  1  0  0  0  0
  3  2  1  0  0  0  0
  4 11  1  6  0  0  0
  4  5  1  0  0  0  0
  5  6  1  1  0  0  0
  5 12  1  0  0  0  0
  6 13  1  0  0  0  0
  7  9  1  0  0  0  0
  8  7  1  0  0  0  0
 14  7  2  0  0  0  0
 15 11  1  6  0  0  0
 16 23  1  1  0  0  0
 16 15  1  0  0  0  0
 17 24  1  6  0  0  0
 17 16  1  0  0  0  0
 18 25  1  1  0  0  0
 18 17  1  0  0  0  0
 18 19  1  0  0  0  0
 19 20  1  6  0  0  0
 19 26  1  0  0  0  0
 20 27  1  0  0  0  0
 21 22  1  0  0  0  0
 21 23  1  0  0  0  0
 26 15  1  0  0  0  0
 28 21  2  0  0  0  0
 30 29  1  0  0  0  0
 30 37  1  1  0  0  0
 30 31  1  0  0  0  0
 31 38  1  6  0  0  0
 31 32  1  0  0  0  0
 32 33  1  0  0  0  0
 32 39  1  1  0  0  0
 33 34  1  6  0  0  0
 34 41  1  0  0  0  0
 35 42  2  0  0  0  0
 35 37  1  0  0  0  0
 36 35  1  0  0  0  0
 40 29  1  0  0  0  0
 40 33  1  0  0  0  0
 43 39  1  1  0  0  0
 43 54  1  0  0  0  0
 44 51  1  6  0  0  0
 44 43  1  0  0  0  0
 45 52  1  1  0  0  0
 45 44  1  0  0  0  0
 45 46  1  0  0  0  0
 46 53  1  6  0  0  0
 46 47  1  0  0  0  0
 47 54  1  0  0  0  0
 47 48  1  1  0  0  0
 49 51  1  0  0  0  0
 50 49  1  0  0  0  0
 55 48  1  0  0  0  0
 56 49  2  0  0  0  0
 57 69  1  0  0  0  0
 57 66  1  1  0  0  0
 57 58  1  0  0  0  0
 58 65  1  6  0  0  0
 59 58  1  0  0  0  0
 59 67  1  1  0  0  0
 60 68  1  6  0  0  0
 60 59  1  0  0  0  0
 61 62  1  1  0  0  0
 61 69  1  0  0  0  0
 61 60  1  0  0  0  0
 63 71  2  0  0  0  0
 63 64  1  0  0  0  0
 65 63  1  0  0  0  0
 70 62  1  0  0  0  0
 73 72  1  0  0  0  0
 73 80  1  1  0  0  0
 74 81  1  6  0  0  0
 74 73  1  0  0  0  0
 75 82  1  6  0  0  0
 75 76  1  0  0  0  0
 75 74  1  0  0  0  0
 76 77  1  6  0  0  0
 76 83  1  0  0  0  0
 78 85  2  0  0  0  0
 79 78  1  0  0  0  0
 80 78  1  0  0  0  0
 83 72  1  0  0  0  0
 84 77  1  0  0  0  0
 86 97  1  0  0  0  0
 86 82  1  1  0  0  0
 87 94  1  6  0  0  0
 87 86  1  0  0  0  0
 88 95  1  6  0  0  0
 88 89  1  0  0  0  0
 88 87  1  0  0  0  0
 89 96  1  6  0  0  0
 89 90  1  0  0  0  0
 90 91  1  1  0  0  0
 90 97  1  0  0  0  0
 91 98  1  0  0  0  0
 92 94  1  0  0  0  0
 92 93  1  0  0  0  0
 99 92  2  0  0  0  0
M  END
$$$$
