/Users/chinazoemeh/HopeMScP/data/ligands/ache/AChE_58_4EY6/AChE_58_4EY6.pdb
 OpenBabel07172512173D

 70 72  0  0  1  0  0  0  0  0999 V2000
  -22.9600  -58.7510   21.5510 C   0  0  0  0  0  0  0  0  0  0  0  0
  -23.7800  -59.1860   20.3200 C   0  0  1  0  0  0  0  0  0  0  0  0
  -24.3970  -58.0500   19.4940 C   0  0  2  0  0  0  0  0  0  0  0  0
  -24.8610  -56.8580   20.3230 C   0  0  1  0  0  0  0  0  0  0  0  0
  -23.8080  -56.5340   21.3820 C   0  0  1  0  0  0  0  0  0  0  0  0
  -24.2200  -55.3600   22.2690 C   0  0  0  0  0  0  0  0  0  0  0  0
  -22.8420  -61.2730   19.4900 C   0  0  0  0  0  0  0  0  0  0  0  0
  -24.1240  -62.0230   19.7360 C   0  0  0  0  0  0  0  0  0  0  0  0
  -22.9340  -59.9480   19.4210 N   0  0  0  0  0  0  0  0  0  0  0  0
  -25.4760  -58.5450   18.7270 O   0  0  0  0  0  0  0  0  0  0  0  0
  -25.0570  -55.7670   19.4450 O   0  0  0  0  0  0  0  0  0  0  0  0
  -23.5960  -57.6670   22.1940 O   0  0  0  0  0  0  0  0  0  0  0  0
  -25.5930  -55.4870   22.5790 O   0  0  0  0  0  0  0  0  0  0  0  0
  -21.7630  -61.8610   19.3640 O   0  0  0  0  0  0  0  0  0  0  0  0
  -26.4480  -55.2720   19.4760 C   0  0  1  0  0  0  0  0  0  0  0  0
  -26.4780  -53.8260   18.9730 C   0  0  1  0  0  0  0  0  0  0  0  0
  -27.8910  -53.2420   18.9040 C   0  0  2  0  0  0  0  0  0  0  0  0
  -28.8650  -54.2280   18.2620 C   0  0  1  0  0  0  0  0  0  0  0  0
  -28.6990  -55.5980   18.9190 C   0  0  1  0  0  0  0  0  0  0  0  0
  -29.6750  -56.6320   18.3730 C   0  0  0  0  0  0  0  0  0  0  0  0
  -24.4730  -52.5400   19.3380 C   0  0  0  0  0  0  0  0  0  0  0  0
  -23.4110  -52.2190   20.3510 C   0  0  0  0  0  0  0  0  0  0  0  0
  -25.6260  -53.0040   19.8090 N   0  0  0  0  0  0  0  0  0  0  0  0
  -27.8710  -52.0310   18.1760 O   0  0  0  0  0  0  0  0  0  0  0  0
  -30.1990  -53.7700   18.3980 O   0  0  0  0  0  0  0  0  0  0  0  0
  -27.3700  -56.0610   18.7530 O   0  0  0  0  0  0  0  0  0  0  0  0
  -29.5720  -57.7930   19.1660 O   0  0  0  0  0  0  0  0  0  0  0  0
  -24.2700  -52.3800   18.1340 O   0  0  0  0  0  0  0  0  0  0  0  0
   25.1070  -53.5250  -11.9650 C   0  0  0  0  0  0  0  0  0  0  0  0
   25.8400  -52.4380  -11.1750 C   0  0  1  0  0  0  0  0  0  0  0  0
   25.2840  -51.0430  -11.4480 C   0  0  2  0  0  0  0  0  0  0  0  0
   25.2110  -50.7610  -12.9450 C   0  0  1  0  0  0  0  0  0  0  0  0
   24.4500  -51.9120  -13.6140 C   0  0  1  0  0  0  0  0  0  0  0  0
   24.3320  -51.7480  -15.1280 C   0  0  0  0  0  0  0  0  0  0  0  0
   26.9080  -53.0100   -9.0640 C   0  0  0  0  0  0  0  0  0  0  0  0
   28.2200  -53.0160   -9.8020 C   0  0  0  0  0  0  0  0  0  0  0  0
   25.8000  -52.7310   -9.7560 N   0  0  0  0  0  0  0  0  0  0  0  0
   26.0710  -50.0760  -10.7890 O   0  0  0  0  0  0  0  0  0  0  0  0
   24.5740  -49.5060  -13.1280 O   0  0  0  0  0  0  0  0  0  0  0  0
   25.0590  -53.1620  -13.3320 O   0  0  0  0  0  0  0  0  0  0  0  0
   25.5450  -51.2340  -15.6410 O   0  0  0  0  0  0  0  0  0  0  0  0
   26.8830  -53.2600   -7.8600 O   0  0  0  0  0  0  0  0  0  0  0  0
   25.3700  -48.5460  -13.9720 C   0  0  1  0  0  0  0  0  0  0  0  0
   24.4100  -47.6110  -14.7080 C   0  0  1  0  0  0  0  0  0  0  0  0
   25.1590  -46.6930  -15.6730 C   0  0  2  0  0  0  0  0  0  0  0  0
   26.2810  -45.9740  -14.9340 C   0  0  1  0  0  0  0  0  0  0  0  0
   27.1280  -46.9310  -14.0910 C   0  0  1  0  0  0  0  0  0  0  0  0
   28.0650  -46.1230  -13.2010 C   0  0  0  0  0  0  0  0  0  0  0  0
   22.1360  -48.3940  -14.8150 C   0  0  0  0  0  0  0  0  0  0  0  0
   21.0380  -49.0340  -15.6090 C   0  0  0  0  0  0  0  0  0  0  0  0
   23.3490  -48.3570  -15.3660 N   0  0  0  0  0  0  0  0  0  0  0  0
   24.2790  -45.7240  -16.2030 O   0  0  0  0  0  0  0  0  0  0  0  0
   27.0960  -45.2820  -15.8580 O   0  0  0  0  0  0  0  0  0  0  0  0
   26.3340  -47.7810  -13.2720 O   0  0  0  0  0  0  0  0  0  0  0  0
   28.6230  -46.9660  -12.2180 O   0  0  0  0  0  0  0  0  0  0  0  0
   21.9000  -47.9330  -13.6970 O   0  0  0  0  0  0  0  0  0  0  0  0
   -7.9890  -35.5940  -47.1600 C   0  0  0  0  0  0  0  0  0  0  0  0
   -9.4920  -35.4520  -47.4120 C   0  0  1  0  0  0  0  0  0  0  0  0
   -9.9460  -36.2960  -48.6050 C   0  0  2  0  0  0  0  0  0  0  0  0
   -9.0560  -36.0480  -49.8220 C   0  0  1  0  0  0  0  0  0  0  0  0
   -7.6020  -36.3090  -49.4210 C   0  0  1  0  0  0  0  0  0  0  0  0
   -6.6220  -36.2610  -50.6060 C   0  0  0  0  0  0  0  0  0  0  0  0
  -10.7680  -34.9600  -45.3840 C   0  0  0  0  0  0  0  0  0  0  0  0
  -11.6340  -35.5270  -44.2920 C   0  0  0  0  0  0  0  0  0  0  0  0
  -10.2140  -35.8440  -46.2140 N   0  0  0  0  0  0  0  0  0  0  0  0
  -11.2950  -36.0310  -48.9190 O   0  0  0  0  0  0  0  0  0  0  0  0
   -9.4480  -36.8780  -50.8990 O   0  0  0  0  0  0  0  0  0  0  0  0
   -7.2240  -35.4340  -48.3550 O   0  0  0  0  0  0  0  0  0  0  0  0
   -7.1690  -35.5860  -51.7210 O   0  0  0  0  0  0  0  0  0  0  0  0
  -10.5960  -33.7410  -45.4760 O   0  0  0  0  0  0  0  0  0  0  0  0
  1 12  1  0  0  0  0
  2  9  1  6  0  0  0
  2  1  1  0  0  0  0
  3 10  1  1  0  0  0
  3  2  1  0  0  0  0
  3  4  1  0  0  0  0
  4 11  1  6  0  0  0
  4  5  1  0  0  0  0
  5 12  1  0  0  0  0
  5  6  1  1  0  0  0
  6 13  1  0  0  0  0
  7  8  1  0  0  0  0
  9  7  1  0  0  0  0
 14  7  2  0  0  0  0
 15 11  1  6  0  0  0
 16 15  1  0  0  0  0
 16 23  1  1  0  0  0
 17 24  1  6  0  0  0
 17 16  1  0  0  0  0
 18 25  1  1  0  0  0
 18 17  1  0  0  0  0
 18 19  1  0  0  0  0
 19 20  1  6  0  0  0
 20 27  1  0  0  0  0
 21 23  1  0  0  0  0
 21 22  1  0  0  0  0
 26 19  1  0  0  0  0
 26 15  1  0  0  0  0
 28 21  2  0  0  0  0
 29 30  1  0  0  0  0
 30 37  1  1  0  0  0
 31 30  1  0  0  0  0
 31 38  1  1  0  0  0
 32 39  1  1  0  0  0
 32 31  1  0  0  0  0
 33 34  1  6  0  0  0
 33 40  1  0  0  0  0
 33 32  1  0  0  0  0
 35 42  2  0  0  0  0
 36 35  1  0  0  0  0
 37 35  1  0  0  0  0
 40 29  1  0  0  0  0
 41 34  1  0  0  0  0
 43 54  1  0  0  0  0
 43 39  1  1  0  0  0
 44 51  1  6  0  0  0
 44 43  1  0  0  0  0
 45 52  1  1  0  0  0
 45 46  1  0  0  0  0
 45 44  1  0  0  0  0
 46 53  1  6  0  0  0
 46 47  1  0  0  0  0
 47 54  1  0  0  0  0
 47 48  1  1  0  0  0
 48 55  1  0  0  0  0
 49 56  2  0  0  0  0
 50 49  1  0  0  0  0
 51 49  1  0  0  0  0
 58 57  1  0  0  0  0
 58 65  1  1  0  0  0
 59 66  1  6  0  0  0
 59 58  1  0  0  0  0
 60 67  1  6  0  0  0
 60 61  1  0  0  0  0
 60 59  1  0  0  0  0
 61 62  1  6  0  0  0
 61 68  1  0  0  0  0
 63 64  1  0  0  0  0
 65 63  1  0  0  0  0
 68 57  1  0  0  0  0
 69 62  1  0  0  0  0
 70 63  2  0  0  0  0
M  END
$$$$
