/Users/chinazoemeh/HopeMScP/data/ligands/ache/AChE_41_6NEA/AChE_41_6NEA.pdb
 OpenBabel07172512173D

112114  0  0  1  0  0  0  0  0999 V2000
   -6.7850   85.7680  335.6580 C   0  0  0  0  0  0  0  0  0  0  0  0
   -6.3290   87.0670  334.9990 C   0  0  1  0  0  0  0  0  0  0  0  0
   -4.8340   87.2660  335.2060 C   0  0  2  0  0  0  0  0  0  0  0  0
   -4.5090   87.2560  336.6930 C   0  0  1  0  0  0  0  0  0  0  0  0
   -5.0210   85.9630  337.3330 C   0  0  1  0  0  0  0  0  0  0  0  0
   -4.8940   85.9690  338.8380 C   0  0  0  0  0  0  0  0  0  0  0  0
   -7.4930   87.9970  333.0500 C   0  0  0  0  0  0  0  0  0  0  0  0
   -8.0740   89.0020  334.0010 C   0  0  0  0  0  0  0  0  0  0  0  0
   -6.6630   87.0930  333.5840 N   0  0  0  0  0  0  0  0  0  0  0  0
   -4.4350   88.5040  334.6270 O   0  0  0  0  0  0  0  0  0  0  0  0
   -3.1020   87.3870  336.8780 O   0  0  0  0  0  0  0  0  0  0  0  0
   -6.4200   85.7800  337.0530 O   0  0  0  0  0  0  0  0  0  0  0  0
   -5.1920   87.2620  339.3470 O   0  0  0  0  0  0  0  0  0  0  0  0
   -7.7630   88.0030  331.8530 O   0  0  0  0  0  0  0  0  0  0  0  0
   -2.7770   88.4910  337.7700 C   0  0  1  0  0  0  0  0  0  0  0  0
   -1.3550   88.2660  338.3040 C   0  0  1  0  0  0  0  0  0  0  0  0
   -0.9510   89.4120  339.2320 C   0  0  2  0  0  0  0  0  0  0  0  0
   -1.1560   90.7590  338.5490 C   0  0  1  0  0  0  0  0  0  0  0  0
   -2.5810   90.8710  338.0160 C   0  0  1  0  0  0  0  0  0  0  0  0
   -2.8280   92.1450  337.2420 C   0  0  0  0  0  0  0  0  0  0  0  0
   -0.7300   85.8940  338.4480 C   0  0  0  0  0  0  0  0  0  0  0  0
   -0.7220   84.6670  339.3090 C   0  0  0  0  0  0  0  0  0  0  0  0
   -1.2620   86.9910  338.9970 N   0  0  0  0  0  0  0  0  0  0  0  0
    0.4140   89.2600  339.6030 O   0  0  0  0  0  0  0  0  0  0  0  0
   -0.9140   91.8160  339.4720 O   0  0  0  0  0  0  0  0  0  0  0  0
   -2.8510   89.7790  337.1230 O   0  0  0  0  0  0  0  0  0  0  0  0
   -2.0570   92.1920  336.0490 O   0  0  0  0  0  0  0  0  0  0  0  0
   -0.2770   85.8910  337.3090 O   0  0  0  0  0  0  0  0  0  0  0  0
  -75.6470   32.6030  345.7390 C   0  0  0  0  0  0  0  0  0  0  0  0
  -76.5810   32.0110  344.6740 C   0  0  1  0  0  0  0  0  0  0  0  0
  -77.0020   33.0790  343.6700 C   0  0  2  0  0  0  0  0  0  0  0  0
  -77.5720   34.2980  344.3810 C   0  0  1  0  0  0  0  0  0  0  0  0
  -76.5820   34.8060  345.4250 C   0  0  1  0  0  0  0  0  0  0  0  0
  -77.1090   35.9770  346.2300 C   0  0  0  0  0  0  0  0  0  0  0  0
  -76.5380   29.7090  343.8050 C   0  0  0  0  0  0  0  0  0  0  0  0
  -77.9240   29.5690  344.3590 C   0  0  0  0  0  0  0  0  0  0  0  0
  -75.9470   30.8950  343.9890 N   0  0  0  0  0  0  0  0  0  0  0  0
  -77.9840   32.5330  342.7970 O   0  0  0  0  0  0  0  0  0  0  0  0
  -77.8070   35.3140  343.4140 O   0  0  0  0  0  0  0  0  0  0  0  0
  -76.2700   33.7520  346.3490 O   0  0  0  0  0  0  0  0  0  0  0  0
  -77.2850   35.6770  347.6070 O   0  0  0  0  0  0  0  0  0  0  0  0
  -75.9760   28.7880  343.2180 O   0  0  0  0  0  0  0  0  0  0  0  0
  -79.1480   35.8210  343.5360 C   0  0  1  0  0  0  0  0  0  0  0  0
  -79.0940   37.2310  342.9410 C   0  0  1  0  0  0  0  0  0  0  0  0
  -80.4920   37.8640  342.8830 C   0  0  2  0  0  0  0  0  0  0  0  0
  -81.5510   36.8910  342.3740 C   0  0  1  0  0  0  0  0  0  0  0  0
  -81.4130   35.5350  343.0530 C   0  0  1  0  0  0  0  0  0  0  0  0
  -82.3610   34.4860  342.5190 C   0  0  0  0  0  0  0  0  0  0  0  0
  -77.1880   38.7690  343.2210 C   0  0  0  0  0  0  0  0  0  0  0  0
  -76.3710   39.5510  344.2060 C   0  0  0  0  0  0  0  0  0  0  0  0
  -78.1990   38.0590  343.7340 N   0  0  0  0  0  0  0  0  0  0  0  0
  -80.4310   38.9850  342.0080 O   0  0  0  0  0  0  0  0  0  0  0  0
  -82.8470   37.4100  342.6510 O   0  0  0  0  0  0  0  0  0  0  0  0
  -80.0880   35.0460  342.8380 O   0  0  0  0  0  0  0  0  0  0  0  0
  -82.2100   33.2610  343.2240 O   0  0  0  0  0  0  0  0  0  0  0  0
  -76.9470   38.7850  342.0180 O   0  0  0  0  0  0  0  0  0  0  0  0
  -28.3950   71.4490  348.9390 C   0  0  0  0  0  0  0  0  0  0  0  0
  -27.6700   71.9980  350.1430 C   0  0  1  0  0  0  0  0  0  0  0  0
  -28.7030   72.4660  351.1600 C   0  0  2  0  0  0  0  0  0  0  0  0
  -29.6640   73.4650  350.5160 C   0  0  1  0  0  0  0  0  0  0  0  0
  -30.1830   72.9860  349.1510 C   0  0  1  0  0  0  0  0  0  0  0  0
  -30.8370   74.0850  348.3450 C   0  0  0  0  0  0  0  0  0  0  0  0
  -25.4360   71.1940  350.7470 C   0  0  0  0  0  0  0  0  0  0  0  0
  -24.6400   70.0980  351.3890 C   0  0  0  0  0  0  0  0  0  0  0  0
  -26.7630   71.0230  350.7270 N   0  0  0  0  0  0  0  0  0  0  0  0
  -28.0610   73.0420  352.2920 O   0  0  0  0  0  0  0  0  0  0  0  0
  -30.7920   73.6560  351.3630 O   0  0  0  0  0  0  0  0  0  0  0  0
  -29.1210   72.4770  348.3310 O   0  0  0  0  0  0  0  0  0  0  0  0
  -31.4540   75.0560  349.1780 O   0  0  0  0  0  0  0  0  0  0  0  0
  -24.9010   72.1880  350.2640 O   0  0  0  0  0  0  0  0  0  0  0  0
   27.5210   66.6220  370.5710 C   0  0  0  0  0  0  0  0  0  0  0  0
   28.0440   65.2050  370.7930 C   0  0  1  0  0  0  0  0  0  0  0  0
   26.8890   64.2510  371.1060 C   0  0  2  0  0  0  0  0  0  0  0  0
   26.0070   64.8030  372.2190 C   0  0  1  0  0  0  0  0  0  0  0  0
   25.5880   66.2340  371.9110 C   0  0  1  0  0  0  0  0  0  0  0  0
   24.8080   66.8820  373.0310 C   0  0  0  0  0  0  0  0  0  0  0  0
   29.8660   65.3470  369.1350 C   0  0  0  0  0  0  0  0  0  0  0  0
   30.4780   64.7120  367.9220 C   0  0  0  0  0  0  0  0  0  0  0  0
   28.7800   64.7390  369.6270 N   0  0  0  0  0  0  0  0  0  0  0  0
   27.4190   62.9910  371.5010 O   0  0  0  0  0  0  0  0  0  0  0  0
   24.8440   63.9950  372.3610 O   0  0  0  0  0  0  0  0  0  0  0  0
   26.7570   67.0360  371.6990 O   0  0  0  0  0  0  0  0  0  0  0  0
   25.5850   66.9900  374.2150 O   0  0  0  0  0  0  0  0  0  0  0  0
   30.3390   66.3600  369.6450 O   0  0  0  0  0  0  0  0  0  0  0  0
   26.3390   62.8140  375.0060 C   0  0  0  0  0  0  0  0  0  0  0  0
   25.2550   62.3950  375.9770 C   0  0  1  0  0  0  0  0  0  0  0  0
   25.8260   62.2460  377.3930 C   0  0  2  0  0  0  0  0  0  0  0  0
   27.2060   62.8880  377.5360 C   0  0  1  0  0  0  0  0  0  0  0  0
   28.1820   62.4680  376.4300 C   0  0  1  0  0  0  0  0  0  0  0  0
   29.0560   61.3000  376.8240 C   0  0  0  0  0  0  0  0  0  0  0  0
   23.0250   63.1490  375.2600 C   0  0  0  0  0  0  0  0  0  0  0  0
   22.9550   61.8840  374.4540 C   0  0  0  0  0  0  0  0  0  0  0  0
   24.1470   63.3370  375.9660 N   0  0  0  0  0  0  0  0  0  0  0  0
   25.8960   60.8650  377.7300 O   0  0  0  0  0  0  0  0  0  0  0  0
   27.0970   64.3070  377.5740 O   0  0  0  0  0  0  0  0  0  0  0  0
   27.4850   62.0700  375.2410 O   0  0  0  0  0  0  0  0  0  0  0  0
   29.2470   60.4110  375.7330 O   0  0  0  0  0  0  0  0  0  0  0  0
   22.1060   63.9630  375.2710 O   0  0  0  0  0  0  0  0  0  0  0  0
  -63.5300   30.3520  370.2290 C   0  0  0  0  0  0  0  0  0  0  0  0
  -64.2750   29.7250  371.4270 C   0  0  1  0  0  0  0  0  0  0  0  0
  -65.5480   30.5270  371.7400 C   0  0  2  0  0  0  0  0  0  0  0  0
  -65.2450   32.0180  371.8510 C   0  0  1  0  0  0  0  0  0  0  0  0
  -64.4700   32.4900  370.6260 C   0  0  1  0  0  0  0  0  0  0  0  0
  -64.0420   33.9370  370.6950 C   0  0  0  0  0  0  0  0  0  0  0  0
  -65.3020   27.8580  370.1610 C   0  0  0  0  0  0  0  0  0  0  0  0
  -65.5290   26.3760  370.1340 C   0  0  0  0  0  0  0  0  0  0  0  0
  -64.5960   28.3210  371.2030 N   0  0  0  0  0  0  0  0  0  0  0  0
  -66.1400   30.0580  372.9470 O   0  0  0  0  0  0  0  0  0  0  0  0
  -66.4560   32.7590  371.9450 O   0  0  0  0  0  0  0  0  0  0  0  0
  -63.2730   31.7180  370.4940 O   0  0  0  0  0  0  0  0  0  0  0  0
  -63.2440   34.2790  369.5700 O   0  0  0  0  0  0  0  0  0  0  0  0
  -65.7330   28.5960  369.2770 O   0  0  0  0  0  0  0  0  0  0  0  0
  1 12  1  0  0  0  0
  2  9  1  6  0  0  0
  2  3  1  0  0  0  0
  2  1  1  0  0  0  0
  3 10  1  1  0  0  0
  3  4  1  0  0  0  0
  4 11  1  6  0  0  0
  4  5  1  0  0  0  0
  5  6  1  1  0  0  0
  6 13  1  0  0  0  0
  7  9  1  0  0  0  0
  7  8  1  0  0  0  0
 12  5  1  0  0  0  0
 14  7  2  0  0  0  0
 15 11  1  6  0  0  0
 15 16  1  0  0  0  0
 16 23  1  1  0  0  0
 16 17  1  0  0  0  0
 17 24  1  6  0  0  0
 18 17  1  0  0  0  0
 18 25  1  1  0  0  0
 19 20  1  6  0  0  0
 19 18  1  0  0  0  0
 21 23  1  0  0  0  0
 21 22  1  0  0  0  0
 26 15  1  0  0  0  0
 26 19  1  0  0  0  0
 27 20  1  0  0  0  0
 28 21  2  0  0  0  0
 29 40  1  0  0  0  0
 30 37  1  6  0  0  0
 30 29  1  0  0  0  0
 31 38  1  6  0  0  0
 31 32  1  0  0  0  0
 31 30  1  0  0  0  0
 32 39  1  6  0  0  0
 32 33  1  0  0  0  0
 33 34  1  1  0  0  0
 33 40  1  0  0  0  0
 34 41  1  0  0  0  0
 35 37  1  0  0  0  0
 35 36  1  0  0  0  0
 42 35  2  0  0  0  0
 43 39  1  6  0  0  0
 44 43  1  0  0  0  0
 44 51  1  1  0  0  0
 45 52  1  6  0  0  0
 45 44  1  0  0  0  0
 46 53  1  1  0  0  0
 46 45  1  0  0  0  0
 46 47  1  0  0  0  0
 47 48  1  6  0  0  0
 48 55  1  0  0  0  0
 49 51  1  0  0  0  0
 49 50  1  0  0  0  0
 54 47  1  0  0  0  0
 54 43  1  0  0  0  0
 56 49  2  0  0  0  0
 57 58  1  0  0  0  0
 58 65  1  1  0  0  0
 58 59  1  0  0  0  0
 59 66  1  1  0  0  0
 60 59  1  0  0  0  0
 60 67  1  1  0  0  0
 61 62  1  6  0  0  0
 61 60  1  0  0  0  0
 62 69  1  0  0  0  0
 63 64  1  0  0  0  0
 65 63  1  0  0  0  0
 68 57  1  0  0  0  0
 68 61  1  0  0  0  0
 70 63  2  0  0  0  0
 71 72  1  0  0  0  0
 71 82  1  0  0  0  0
 72 79  1  6  0  0  0
 72 73  1  0  0  0  0
 73 80  1  1  0  0  0
 73 74  1  0  0  0  0
 74 81  1  6  0  0  0
 75 74  1  0  0  0  0
 75 76  1  1  0  0  0
 76 83  1  0  0  0  0
 77 79  1  0  0  0  0
 77 84  2  0  0  0  0
 78 77  1  0  0  0  0
 82 75  1  0  0  0  0
 85 96  1  0  0  0  0
 85 86  1  0  0  0  0
 86 93  1  1  0  0  0
 86 87  1  0  0  0  0
 87 88  1  0  0  0  0
 87 94  1  6  0  0  0
 88 95  1  6  0  0  0
 89 90  1  1  0  0  0
 89 88  1  0  0  0  0
 91 98  2  0  0  0  0
 91 93  1  0  0  0  0
 92 91  1  0  0  0  0
 96 89  1  0  0  0  0
 97 90  1  0  0  0  0
 99110  1  0  0  0  0
 99100  1  0  0  0  0
100107  1  6  0  0  0
100101  1  0  0  0  0
101102  1  0  0  0  0
101108  1  1  0  0  0
102109  1  6  0  0  0
103104  1  1  0  0  0
103102  1  0  0  0  0
105107  1  0  0  0  0
106105  1  0  0  0  0
110103  1  0  0  0  0
111104  1  0  0  0  0
112105  2  0  0  0  0
M  END
$$$$
