/Users/chinazoemeh/HopeMScP/data/ligands/ache/AChE_74_1VZJ/AChE_74_1VZJ.pdb
 OpenBabel07172512173D

 64 56  0  0  1  0  0  0  0  0999 V2000
   38.7140   20.2910   25.5390 N   0  0  0  0  0  0  0  0  0  0  0  0
   38.9980   21.0480   26.7480 C   0  0  2  0  0  0  0  0  0  0  0  0
   40.4270   20.7890   27.1840 C   0  0  0  0  0  0  0  0  0  0  0  0
   41.1320   21.7040   27.6150 O   0  0  0  0  0  0  0  0  0  0  0  0
   38.0370   20.6370   27.8520 C   0  0  0  0  0  0  0  0  0  0  0  0
   36.6070   20.9580   27.5160 C   0  0  0  0  0  0  0  0  0  0  0  0
   36.0830   22.6740   28.1520 Se  0  0  0  0  0  0  0  0  0  0  0  0
   37.3970   23.7600   27.3860 C   0  0  0  0  0  0  0  0  0  0  0  0
   30.8380   23.2030   17.9580 N   0  0  0  0  0  0  0  0  0  0  0  0
   32.0010   22.3830   18.2600 C   0  0  2  0  0  0  0  0  0  0  0  0
   32.9940   22.4960   17.1040 C   0  0  0  0  0  0  0  0  0  0  0  0
   34.1660   22.8090   17.3170 O   0  0  0  0  0  0  0  0  0  0  0  0
   31.5810   20.9300   18.4920 C   0  0  0  0  0  0  0  0  0  0  0  0
   32.5210   20.1310   19.3790 C   0  0  0  0  0  0  0  0  0  0  0  0
   32.6830   20.7080   21.2180 Se  0  0  0  0  0  0  0  0  0  0  0  0
   33.9780   22.0830   20.9330 C   0  0  0  0  0  0  0  0  0  0  0  0
   24.8120   27.9880   26.1500 N   0  0  0  0  0  0  0  0  0  0  0  0
   25.0110   28.0740   24.7140 C   0  0  2  0  0  0  0  0  0  0  0  0
   24.7960   29.4970   24.1760 C   0  0  0  0  0  0  0  0  0  0  0  0
   25.5620   29.9690   23.3260 O   0  0  0  0  0  0  0  0  0  0  0  0
   24.0840   27.0800   24.0240 C   0  0  0  0  0  0  0  0  0  0  0  0
   24.4970   25.6520   24.2900 C   0  0  0  0  0  0  0  0  0  0  0  0
   25.6530   25.0320   22.9530 Se  0  0  0  0  0  0  0  0  0  0  0  0
   27.3210   25.4520   23.4450 C   0  0  0  0  0  0  0  0  0  0  0  0
   29.4600   20.4170   33.8390 N   0  0  0  0  0  0  0  0  0  0  0  0
   28.7620   21.6310   33.4690 C   0  0  2  0  0  0  0  0  0  0  0  0
   29.2860   22.7330   34.3810 C   0  0  0  0  0  0  0  0  0  0  0  0
   29.7640   23.7620   33.9150 O   0  0  0  0  0  0  0  0  0  0  0  0
   27.2500   21.4470   33.6520 C   0  0  0  0  0  0  0  0  0  0  0  0
   26.3680   22.4680   32.8950 C   0  0  0  0  0  0  0  0  0  0  0  0
   26.0320   22.0760   31.0090 Se  0  0  0  0  0  0  0  0  0  0  0  0
   27.7580   22.1980   30.3970 C   0  0  0  0  0  0  0  0  0  0  0  0
    9.7880   -4.3440   53.1480 N   0  0  0  0  0  0  0  0  0  0  0  0
    9.7000   -3.5200   51.9550 C   0  0  2  0  0  0  0  0  0  0  0  0
    8.3870   -3.7280   51.2510 C   0  0  0  0  0  0  0  0  0  0  0  0
    7.9080   -2.8560   50.5310 O   0  0  0  0  0  0  0  0  0  0  0  0
   10.8580   -3.8440   51.0350 C   0  0  0  0  0  0  0  0  0  0  0  0
   12.1760   -3.4540   51.6370 C   0  0  0  0  0  0  0  0  0  0  0  0
   12.8740   -1.9000   50.8370 Se  0  0  0  0  0  0  0  0  0  0  0  0
   11.4690   -0.6540   51.1750 C   0  0  0  0  0  0  0  0  0  0  0  0
   16.4350   -1.6470   61.8730 N   0  0  0  0  0  0  0  0  0  0  0  0
   15.3360   -2.4700   61.3850 C   0  0  2  0  0  0  0  0  0  0  0  0
   14.1720   -2.5260   62.3630 C   0  0  0  0  0  0  0  0  0  0  0  0
   13.0200   -2.6740   61.9620 O   0  0  0  0  0  0  0  0  0  0  0  0
   15.8190   -3.8840   61.0920 C   0  0  0  0  0  0  0  0  0  0  0  0
   14.9080   -4.6430   60.1550 C   0  0  0  0  0  0  0  0  0  0  0  0
   15.1220   -4.1810   58.2850 Se  0  0  0  0  0  0  0  0  0  0  0  0
   14.0450   -2.6250   58.2460 C   0  0  0  0  0  0  0  0  0  0  0  0
   23.8260    3.0520   54.7460 N   0  0  0  0  0  0  0  0  0  0  0  0
   23.5000    2.9880   56.1590 C   0  0  2  0  0  0  0  0  0  0  0  0
   23.5880    4.3830   56.7860 C   0  0  0  0  0  0  0  0  0  0  0  0
   22.6940    4.7780   57.5130 O   0  0  0  0  0  0  0  0  0  0  0  0
   24.4500    2.0090   56.8530 C   0  0  0  0  0  0  0  0  0  0  0  0
   23.8460    1.3050   58.0360 C   0  0  0  0  0  0  0  0  0  0  0  0
   22.3470    0.1690   57.6040 Se  0  0  0  0  0  0  0  0  0  0  0  0
   20.9220    1.4550   57.6660 C   0  0  0  0  0  0  0  0  0  0  0  0
   20.2890   -3.8990   46.2560 N   0  0  0  0  0  0  0  0  0  0  0  0
   20.8810   -2.6960   46.7840 C   0  0  2  0  0  0  0  0  0  0  0  0
   20.5450   -1.5920   45.8200 C   0  0  0  0  0  0  0  0  0  0  0  0
   20.0800   -0.5270   46.2230 O   0  0  0  0  0  0  0  0  0  0  0  0
   22.3860   -2.8440   46.8880 C   0  0  0  0  0  0  0  0  0  0  0  0
   22.8020   -3.6010   48.1260 C   0  0  0  0  0  0  0  0  0  0  0  0
   23.3010   -2.4600   49.5890 Se  0  0  0  0  0  0  0  0  0  0  0  0
   21.7690   -2.2550   50.4630 C   0  0  0  0  0  0  0  0  0  0  0  0
  2  1  1  6  0  0  0
  2  3  1  0  0  0  0
  2  5  1  0  0  0  0
  3  4  2  0  0  0  0
  6  5  1  0  0  0  0
  6  7  1  0  0  0  0
  8  7  1  0  0  0  0
 10  9  1  6  0  0  0
 10 13  1  0  0  0  0
 11 12  2  0  0  0  0
 11 10  1  0  0  0  0
 13 14  1  0  0  0  0
 14 15  1  0  0  0  0
 16 15  1  0  0  0  0
 18 17  1  1  0  0  0
 19 18  1  0  0  0  0
 20 19  2  0  0  0  0
 21 22  1  0  0  0  0
 21 18  1  0  0  0  0
 23 24  1  0  0  0  0
 23 22  1  0  0  0  0
 26 29  1  0  0  0  0
 26 25  1  1  0  0  0
 26 27  1  0  0  0  0
 28 27  2  0  0  0  0
 30 29  1  0  0  0  0
 31 30  1  0  0  0  0
 32 31  1  0  0  0  0
 34 33  1  1  0  0  0
 35 34  1  0  0  0  0
 36 35  2  0  0  0  0
 37 38  1  0  0  0  0
 37 34  1  0  0  0  0
 39 40  1  0  0  0  0
 39 38  1  0  0  0  0
 42 41  1  1  0  0  0
 42 43  1  0  0  0  0
 44 43  2  0  0  0  0
 45 42  1  0  0  0  0
 46 45  1  0  0  0  0
 47 46  1  0  0  0  0
 48 47  1  0  0  0  0
 50 49  1  6  0  0  0
 50 51  1  0  0  0  0
 50 53  1  0  0  0  0
 51 52  2  0  0  0  0
 53 54  1  0  0  0  0
 55 56  1  0  0  0  0
 55 54  1  0  0  0  0
 58 57  1  6  0  0  0
 58 61  1  0  0  0  0
 59 60  2  0  0  0  0
 59 58  1  0  0  0  0
 61 62  1  0  0  0  0
 62 63  1  0  0  0  0
 63 64  1  0  0  0  0
M  END
$$$$
