/Users/chinazoemeh/HopeMScP/data/ligands/ache/AChE_7_3LII/AChE_7_3LII.pdb
 OpenBabel07172512173D

 56 58  0  0  1  0  0  0  0  0999 V2000
   91.9700   66.5490   -5.3060 C   0  0  0  0  0  0  0  0  0  0  0  0
   93.2780   67.2480   -4.7890 C   0  0  1  0  0  0  0  0  0  0  0  0
   93.7600   66.5680   -3.5150 C   0  0  2  0  0  0  0  0  0  0  0  0
   92.6860   65.9190   -2.6240 C   0  0  1  0  0  0  0  0  0  0  0  0
   91.7400   65.1250   -3.5160 C   0  0  1  0  0  0  0  0  0  0  0  0
   90.6550   64.2480   -2.8690 C   0  0  0  0  0  0  0  0  0  0  0  0
   95.5040   66.8180   -6.3220 C   0  0  0  0  0  0  0  0  0  0  0  0
   95.3210   65.9500   -7.5730 C   0  0  0  0  0  0  0  0  0  0  0  0
   94.4340   67.5250   -5.7700 N   0  0  0  0  0  0  0  0  0  0  0  0
   94.5170   67.5380   -2.8720 O   0  0  0  0  0  0  0  0  0  0  0  0
   93.2380   65.0060   -1.7010 O   0  0  0  0  0  0  0  0  0  0  0  0
   91.1600   66.1640   -4.2390 O   0  0  0  0  0  0  0  0  0  0  0  0
   89.8030   63.7670   -3.8980 O   0  0  0  0  0  0  0  0  0  0  0  0
   96.6410   66.9130   -5.8290 O   0  0  0  0  0  0  0  0  0  0  0  0
   93.8790   65.6070   -0.5090 C   0  0  1  0  0  0  0  0  0  0  0  0
   95.0400   64.6490   -0.0220 C   0  0  1  0  0  0  0  0  0  0  0  0
   96.4470   65.3200    0.1060 C   0  0  2  0  0  0  0  0  0  0  0  0
   96.5180   66.8420   -0.1460 C   0  0  1  0  0  0  0  0  0  0  0  0
   95.2310   67.5960    0.2070 C   0  0  1  0  0  0  0  0  0  0  0  0
   95.3420   69.1050   -0.0390 C   0  0  0  0  0  0  0  0  0  0  0  0
   93.8780   62.7750    1.4070 C   0  0  0  0  0  0  0  0  0  0  0  0
   93.1940   62.5910    2.7600 C   0  0  0  0  0  0  0  0  0  0  0  0
   94.6910   63.8740    1.2300 N   0  0  0  0  0  0  0  0  0  0  0  0
   97.4110   64.6640   -0.7030 O   0  0  0  0  0  0  0  0  0  0  0  0
   97.5430   67.3550    0.6650 O   0  0  0  0  0  0  0  0  0  0  0  0
   94.1620   67.0430   -0.5570 O   0  0  0  0  0  0  0  0  0  0  0  0
   94.1550   69.6290    0.4730 O   0  0  0  0  0  0  0  0  0  0  0  0
   93.6860   61.9070    0.5280 O   0  0  0  0  0  0  0  0  0  0  0  0
   41.0840   85.4350   20.3040 C   0  0  0  0  0  0  0  0  0  0  0  0
   40.9730   85.5710   21.8590 C   0  0  1  0  0  0  0  0  0  0  0  0
   41.6630   86.8530   22.4090 C   0  0  2  0  0  0  0  0  0  0  0  0
   42.8150   87.4570   21.5810 C   0  0  1  0  0  0  0  0  0  0  0  0
   42.2670   87.6130   20.1680 C   0  0  1  0  0  0  0  0  0  0  0  0
   43.1480   88.3290   19.1320 C   0  0  0  0  0  0  0  0  0  0  0  0
   38.4100   85.8860   22.7890 C   0  0  0  0  0  0  0  0  0  0  0  0
   37.3870   85.8650   21.6420 C   0  0  0  0  0  0  0  0  0  0  0  0
   39.6240   85.2330   22.5340 N   0  0  0  0  0  0  0  0  0  0  0  0
   42.1260   86.6220   23.7150 O   0  0  0  0  0  0  0  0  0  0  0  0
   43.3460   88.7100   22.0170 O   0  0  0  0  0  0  0  0  0  0  0  0
   42.0610   86.2870   19.7450 O   0  0  0  0  0  0  0  0  0  0  0  0
   42.5720   88.0660   17.8550 O   0  0  0  0  0  0  0  0  0  0  0  0
   38.1290   86.4510   23.8970 O   0  0  0  0  0  0  0  0  0  0  0  0
   43.6150   89.1030   23.4260 C   0  0  1  0  0  0  0  0  0  0  0  0
   42.8030   90.3740   23.8670 C   0  0  1  0  0  0  0  0  0  0  0  0
   43.1990   90.8900   25.2990 C   0  0  2  0  0  0  0  0  0  0  0  0
   43.3970   89.7630   26.3100 C   0  0  1  0  0  0  0  0  0  0  0  0
   44.2790   88.6640   25.6680 C   0  0  1  0  0  0  0  0  0  0  0  0
   44.7240   87.5380   26.5990 C   0  0  0  0  0  0  0  0  0  0  0  0
   42.4130   91.3640   21.5230 C   0  0  0  0  0  0  0  0  0  0  0  0
   43.3200   91.7640   20.3520 C   0  0  0  0  0  0  0  0  0  0  0  0
   42.9100   91.4200   22.8120 N   0  0  0  0  0  0  0  0  0  0  0  0
   42.3390   91.8110   25.9580 O   0  0  0  0  0  0  0  0  0  0  0  0
   43.9490   90.3760   27.4690 O   0  0  0  0  0  0  0  0  0  0  0  0
   43.6750   88.1300   24.4760 O   0  0  0  0  0  0  0  0  0  0  0  0
   45.7010   86.8800   25.8250 O   0  0  0  0  0  0  0  0  0  0  0  0
   41.2450   91.0000   21.2680 O   0  0  0  0  0  0  0  0  0  0  0  0
  1  2  1  0  0  0  0
  1 12  1  0  0  0  0
  2  9  1  6  0  0  0
  2  3  1  0  0  0  0
  3 10  1  1  0  0  0
  3  4  1  0  0  0  0
  4 11  1  1  0  0  0
  5  6  1  1  0  0  0
  5  4  1  0  0  0  0
  7 14  2  0  0  0  0
  7  9  1  0  0  0  0
  8  7  1  0  0  0  0
 12  5  1  0  0  0  0
 13  6  1  0  0  0  0
 15 11  1  6  0  0  0
 15 16  1  0  0  0  0
 16 17  1  0  0  0  0
 16 23  1  1  0  0  0
 17 24  1  6  0  0  0
 18 17  1  0  0  0  0
 18 19  1  0  0  0  0
 18 25  1  1  0  0  0
 19 20  1  6  0  0  0
 20 27  1  0  0  0  0
 21 22  1  0  0  0  0
 23 21  1  0  0  0  0
 26 15  1  0  0  0  0
 26 19  1  0  0  0  0
 28 21  2  0  0  0  0
 29 30  1  0  0  0  0
 30 31  1  0  0  0  0
 30 37  1  6  0  0  0
 31 38  1  1  0  0  0
 32 39  1  1  0  0  0
 32 31  1  0  0  0  0
 33 34  1  6  0  0  0
 33 32  1  0  0  0  0
 35 42  2  0  0  0  0
 36 35  1  0  0  0  0
 37 35  1  0  0  0  0
 40 33  1  0  0  0  0
 40 29  1  0  0  0  0
 41 34  1  0  0  0  0
 43 39  1  6  0  0  0
 43 44  1  0  0  0  0
 43 54  1  0  0  0  0
 44 51  1  6  0  0  0
 44 45  1  0  0  0  0
 45 52  1  1  0  0  0
 45 46  1  0  0  0  0
 46 53  1  1  0  0  0
 47 46  1  0  0  0  0
 47 48  1  1  0  0  0
 49 51  1  0  0  0  0
 50 49  1  0  0  0  0
 54 47  1  0  0  0  0
 55 48  1  0  0  0  0
 56 49  2  0  0  0  0
M  END
$$$$
