/Users/chinazoemeh/HopeMScP/data/ligands/ache/AChE_71_1F8U/AChE_71_1F8U.pdb
 OpenBabel07172512173D

 28 29  0  0  1  0  0  0  0  0999 V2000
  122.2200  105.7200 -113.8750 C   0  0  0  0  0  0  0  0  0  0  0  0
  121.8010  105.7990 -112.3880 C   0  0  1  0  0  0  0  0  0  0  0  0
  120.7790  106.9260 -112.1470 C   0  0  2  0  0  0  0  0  0  0  0  0
  121.1880  108.2480 -112.8190 C   0  0  1  0  0  0  0  0  0  0  0  0
  121.6050  108.0060 -114.2730 C   0  0  1  0  0  0  0  0  0  0  0  0
  122.1590  109.2600 -114.9270 C   0  0  0  0  0  0  0  0  0  0  0  0
  121.8200  103.7750 -111.0550 C   0  0  0  0  0  0  0  0  0  0  0  0
  122.1010  102.3310 -111.4450 C   0  0  0  0  0  0  0  0  0  0  0  0
  121.2140  104.5380 -111.9620 N   0  0  0  0  0  0  0  0  0  0  0  0
  120.6400  107.1390 -110.7480 O   0  0  0  0  0  0  0  0  0  0  0  0
  120.0710  109.1630 -112.8000 O   0  0  0  0  0  0  0  0  0  0  0  0
  122.6450  107.0120 -114.3320 O   0  0  0  0  0  0  0  0  0  0  0  0
  123.4510  109.5770 -114.4250 O   0  0  0  0  0  0  0  0  0  0  0  0
  122.1510  104.1880 -109.9410 O   0  0  0  0  0  0  0  0  0  0  0  0
  120.1640  110.2840 -111.9870 C   0  0  1  0  0  0  0  0  0  0  0  0
  119.2440  111.3830 -112.5420 C   0  0  1  0  0  0  0  0  0  0  0  0
  119.2380  112.5810 -111.5850 C   0  0  2  0  0  0  0  0  0  0  0  0
  118.8150  112.1240 -110.1910 C   0  0  1  0  0  0  0  0  0  0  0  0
  119.7500  111.0030 -109.7160 C   0  0  1  0  0  0  0  0  0  0  0  0
  119.3220  110.4410 -108.3720 C   0  0  0  0  0  0  0  0  0  0  0  0
  118.8840  111.6090 -114.9230 C   0  0  0  0  0  0  0  0  0  0  0  0
  118.0310  112.7870 -115.3630 C   0  0  0  0  0  0  0  0  0  0  0  0
  119.6800  111.7880 -113.8690 N   0  0  0  0  0  0  0  0  0  0  0  0
  118.3370  113.5750 -112.0540 O   0  0  0  0  0  0  0  0  0  0  0  0
  118.8680  113.2200 -109.2880 O   0  0  0  0  0  0  0  0  0  0  0  0
  119.7400  109.9030 -110.6620 O   0  0  0  0  0  0  0  0  0  0  0  0
  120.4050  109.7960 -107.7150 O   0  0  0  0  0  0  0  0  0  0  0  0
  118.8220  110.5450 -115.5390 O   0  0  0  0  0  0  0  0  0  0  0  0
  1  2  1  0  0  0  0
  2  3  1  0  0  0  0
  2  9  1  6  0  0  0
  3 10  1  1  0  0  0
  4 11  1  6  0  0  0
  4  3  1  0  0  0  0
  5  6  1  1  0  0  0
  5  4  1  0  0  0  0
  6 13  1  0  0  0  0
  7 14  2  0  0  0  0
  8  7  1  0  0  0  0
  9  7  1  0  0  0  0
 12  5  1  0  0  0  0
 12  1  1  0  0  0  0
 15 11  1  6  0  0  0
 15 26  1  0  0  0  0
 16 23  1  6  0  0  0
 16 15  1  0  0  0  0
 16 17  1  0  0  0  0
 17 24  1  6  0  0  0
 17 18  1  0  0  0  0
 18 19  1  0  0  0  0
 18 25  1  1  0  0  0
 19 20  1  1  0  0  0
 20 27  1  0  0  0  0
 21 23  1  0  0  0  0
 22 21  1  0  0  0  0
 26 19  1  0  0  0  0
 28 21  2  0  0  0  0
M  END
$$$$
