/Users/chinazoemeh/HopeMScP/data/ligands/ache/AChE_68_6WVO/AChE_68_6WVO.pdb
 OpenBabel07172512173D

 70 72  0  0  1  0  0  0  0  0999 V2000
  -22.9370  -58.4240   21.5990 C   0  0  0  0  0  0  0  0  0  0  0  0
  -23.8820  -58.9150   20.4880 C   0  0  1  0  0  0  0  0  0  0  0  0
  -24.2650  -57.7690   19.5560 C   0  0  2  0  0  0  0  0  0  0  0  0
  -24.7990  -56.5810   20.3480 C   0  0  1  0  0  0  0  0  0  0  0  0
  -23.7810  -56.1840   21.4190 C   0  0  1  0  0  0  0  0  0  0  0  0
  -24.2320  -55.0500   22.3160 C   0  0  0  0  0  0  0  0  0  0  0  0
  -23.8630  -61.2190   19.6330 C   0  0  0  0  0  0  0  0  0  0  0  0
  -25.1630  -61.3990   20.3680 C   0  0  0  0  0  0  0  0  0  0  0  0
  -23.2930  -60.0100   19.7320 N   0  0  0  0  0  0  0  0  0  0  0  0
  -25.2510  -58.2340   18.6400 O   0  0  0  0  0  0  0  0  0  0  0  0
  -25.0390  -55.4950   19.4560 O   0  0  0  0  0  0  0  0  0  0  0  0
  -23.5230  -57.3100   22.2700 O   0  0  0  0  0  0  0  0  0  0  0  0
  -25.6340  -55.0930   22.5450 O   0  0  0  0  0  0  0  0  0  0  0  0
  -23.3530  -62.1280   18.9810 O   0  0  0  0  0  0  0  0  0  0  0  0
  -26.4130  -55.0420   19.5310 C   0  0  1  0  0  0  0  0  0  0  0  0
  -26.4490  -53.6020   18.9990 C   0  0  1  0  0  0  0  0  0  0  0  0
  -27.8820  -53.0630   19.0150 C   0  0  2  0  0  0  0  0  0  0  0  0
  -28.8240  -54.0220   18.2950 C   0  0  1  0  0  0  0  0  0  0  0  0
  -28.6740  -55.4310   18.8700 C   0  0  1  0  0  0  0  0  0  0  0  0
  -29.5150  -56.4670   18.1620 C   0  0  0  0  0  0  0  0  0  0  0  0
  -24.4130  -52.2620   19.2940 C   0  0  0  0  0  0  0  0  0  0  0  0
  -23.6180  -51.4020   20.2300 C   0  0  0  0  0  0  0  0  0  0  0  0
  -25.5660  -52.7450   19.7740 N   0  0  0  0  0  0  0  0  0  0  0  0
  -27.9090  -51.7850   18.3860 O   0  0  0  0  0  0  0  0  0  0  0  0
  -30.1760  -53.5890   18.4220 O   0  0  0  0  0  0  0  0  0  0  0  0
  -27.3070  -55.8590   18.7620 O   0  0  0  0  0  0  0  0  0  0  0  0
  -29.8950  -57.5050   19.0540 O   0  0  0  0  0  0  0  0  0  0  0  0
  -24.0320  -52.5060   18.1500 O   0  0  0  0  0  0  0  0  0  0  0  0
   25.1520  -53.7840  -11.6570 C   0  0  0  0  0  0  0  0  0  0  0  0
   25.9920  -52.7420  -10.8970 C   0  0  1  0  0  0  0  0  0  0  0  0
   25.4490  -51.3290  -11.1250 C   0  0  2  0  0  0  0  0  0  0  0  0
   25.3180  -51.0250  -12.6110 C   0  0  1  0  0  0  0  0  0  0  0  0
   24.4680  -52.1150  -13.2730 C   0  0  1  0  0  0  0  0  0  0  0  0
   24.3630  -51.9760  -14.7760 C   0  0  0  0  0  0  0  0  0  0  0  0
   27.1500  -53.3660   -8.8210 C   0  0  0  0  0  0  0  0  0  0  0  0
   28.4100  -53.3960   -9.6380 C   0  0  0  0  0  0  0  0  0  0  0  0
   26.0280  -53.0470   -9.4760 N   0  0  0  0  0  0  0  0  0  0  0  0
   26.3120  -50.3750  -10.5160 O   0  0  0  0  0  0  0  0  0  0  0  0
   24.7340  -49.7290  -12.7540 O   0  0  0  0  0  0  0  0  0  0  0  0
   25.0470  -53.4080  -13.0300 O   0  0  0  0  0  0  0  0  0  0  0  0
   25.5990  -51.5630  -15.3440 O   0  0  0  0  0  0  0  0  0  0  0  0
   27.1490  -53.6230   -7.6220 O   0  0  0  0  0  0  0  0  0  0  0  0
   25.3790  -48.8620  -13.7360 C   0  0  1  0  0  0  0  0  0  0  0  0
   24.3410  -47.8290  -14.1880 C   0  0  1  0  0  0  0  0  0  0  0  0
   24.9350  -46.9240  -15.2700 C   0  0  2  0  0  0  0  0  0  0  0  0
   26.2420  -46.3040  -14.7870 C   0  0  1  0  0  0  0  0  0  0  0  0
   27.2000  -47.3860  -14.2830 C   0  0  1  0  0  0  0  0  0  0  0  0
   28.4740  -46.8230  -13.6940 C   0  0  0  0  0  0  0  0  0  0  0  0
   21.9270  -48.2570  -14.1440 C   0  0  0  0  0  0  0  0  0  0  0  0
   21.8730  -47.2690  -13.0140 C   0  0  0  0  0  0  0  0  0  0  0  0
   23.1350  -48.4810  -14.6700 N   0  0  0  0  0  0  0  0  0  0  0  0
   24.0060  -45.9000  -15.6140 O   0  0  0  0  0  0  0  0  0  0  0  0
   26.8530  -45.5750  -15.8460 O   0  0  0  0  0  0  0  0  0  0  0  0
   26.5680  -48.1760  -13.2580 O   0  0  0  0  0  0  0  0  0  0  0  0
   28.4960  -46.9470  -12.2780 O   0  0  0  0  0  0  0  0  0  0  0  0
   20.9230  -48.8220  -14.5640 O   0  0  0  0  0  0  0  0  0  0  0  0
   -7.9840  -35.3010  -46.9380 C   0  0  0  0  0  0  0  0  0  0  0  0
   -9.5020  -35.0620  -46.9000 C   0  0  1  0  0  0  0  0  0  0  0  0
  -10.1880  -35.8510  -48.0190 C   0  0  2  0  0  0  0  0  0  0  0  0
   -9.5590  -35.5500  -49.3750 C   0  0  1  0  0  0  0  0  0  0  0  0
   -8.0520  -35.7950  -49.3140 C   0  0  1  0  0  0  0  0  0  0  0  0
   -7.3110  -35.4620  -50.5980 C   0  0  0  0  0  0  0  0  0  0  0  0
  -10.4530  -34.5440  -44.6860 C   0  0  0  0  0  0  0  0  0  0  0  0
  -11.0360  -35.1200  -43.4260 C   0  0  0  0  0  0  0  0  0  0  0  0
  -10.0660  -35.4320  -45.6100 N   0  0  0  0  0  0  0  0  0  0  0  0
  -11.5770  -35.5460  -48.0360 O   0  0  0  0  0  0  0  0  0  0  0  0
  -10.1390  -36.3910  -50.3680 O   0  0  0  0  0  0  0  0  0  0  0  0
   -7.4750  -34.9980  -48.2670 O   0  0  0  0  0  0  0  0  0  0  0  0
   -8.0060  -34.5400  -51.4280 O   0  0  0  0  0  0  0  0  0  0  0  0
  -10.3320  -33.3270  -44.8520 O   0  0  0  0  0  0  0  0  0  0  0  0
  1 12  1  0  0  0  0
  2  9  1  6  0  0  0
  2  1  1  0  0  0  0
  3 10  1  6  0  0  0
  3  4  1  0  0  0  0
  3  2  1  0  0  0  0
  4 11  1  6  0  0  0
  4  5  1  0  0  0  0
  5 12  1  0  0  0  0
  5  6  1  1  0  0  0
  6 13  1  0  0  0  0
  7  9  1  0  0  0  0
  7  8  1  0  0  0  0
 14  7  2  0  0  0  0
 15 11  1  6  0  0  0
 16 17  1  0  0  0  0
 16 15  1  0  0  0  0
 16 23  1  1  0  0  0
 17 24  1  6  0  0  0
 18 25  1  1  0  0  0
 18 19  1  0  0  0  0
 18 17  1  0  0  0  0
 19 20  1  6  0  0  0
 20 27  1  0  0  0  0
 21 23  1  0  0  0  0
 21 22  1  0  0  0  0
 26 19  1  0  0  0  0
 26 15  1  0  0  0  0
 28 21  2  0  0  0  0
 29 30  1  0  0  0  0
 30 37  1  1  0  0  0
 31 30  1  0  0  0  0
 31 38  1  6  0  0  0
 32 39  1  1  0  0  0
 32 31  1  0  0  0  0
 33 34  1  6  0  0  0
 33 40  1  0  0  0  0
 33 32  1  0  0  0  0
 35 42  2  0  0  0  0
 36 35  1  0  0  0  0
 37 35  1  0  0  0  0
 40 29  1  0  0  0  0
 41 34  1  0  0  0  0
 43 54  1  0  0  0  0
 43 39  1  1  0  0  0
 44 51  1  6  0  0  0
 44 43  1  0  0  0  0
 45 52  1  1  0  0  0
 45 46  1  0  0  0  0
 45 44  1  0  0  0  0
 46 53  1  6  0  0  0
 46 47  1  0  0  0  0
 47 48  1  1  0  0  0
 47 54  1  0  0  0  0
 48 55  1  0  0  0  0
 49 50  1  0  0  0  0
 51 49  1  0  0  0  0
 56 49  2  0  0  0  0
 57 58  1  0  0  0  0
 58 65  1  1  0  0  0
 59 66  1  6  0  0  0
 59 58  1  0  0  0  0
 60 67  1  6  0  0  0
 60 61  1  0  0  0  0
 60 59  1  0  0  0  0
 61 62  1  6  0  0  0
 61 68  1  0  0  0  0
 63 64  1  0  0  0  0
 65 63  1  0  0  0  0
 68 57  1  0  0  0  0
 69 62  1  0  0  0  0
 70 63  2  0  0  0  0
M  END
$$$$
