/Users/chinazoemeh/HopeMScP/data/ligands/ache/AChE_25_6U3P/AChE_25_6U3P.pdb
 OpenBabel07172512173D

 23 23  0  0  0  0  0  0  0  0999 V2000
   32.9730  -12.0650    9.5540 N   0  0  0  0  0  0  0  0  0  0  0  0
   34.9020  -12.2650   12.4840 N   0  0  0  0  0  0  0  0  0  0  0  0
   32.2690  -13.9100    8.4760 C   0  0  0  0  0  0  0  0  0  0  0  0
   33.3830  -12.9030    8.6610 C   0  0  0  0  0  0  0  0  0  0  0  0
   31.5880  -13.2440    6.4770 C   0  0  0  0  0  0  0  0  0  0  0  0
   31.9070  -14.5370    5.7220 C   0  0  0  0  0  0  0  0  0  0  0  0
   33.9380  -11.7700   10.3410 C   0  0  0  0  0  0  0  0  0  0  0  0
   36.3620  -12.1410   12.4930 C   0  0  0  0  0  0  0  0  0  0  0  0
   28.9360  -14.7410    3.5320 C   0  0  0  0  0  0  0  0  0  0  0  0
   32.5530  -11.0210    8.9180 C   0  0  0  0  0  0  0  0  0  0  0  0
   37.2170  -12.7020   13.6390 C   0  0  0  0  0  0  0  0  0  0  0  0
   29.4900  -14.3850    4.9110 C   0  0  0  0  0  0  0  0  0  0  0  0
   31.1580  -11.1490    8.3550 C   0  0  0  0  0  0  0  0  0  0  0  0
   30.5660  -12.5820    8.3300 C   0  0  0  0  0  0  0  0  0  0  0  0
   34.1650  -12.8490   11.3960 C   0  0  0  0  0  0  0  0  0  0  0  0
   31.2580  -13.4830    7.7560 N   0  0  0  0  0  0  0  0  0  0  0  0
   30.6650  -15.1420    5.3420 N   0  0  0  0  0  0  0  0  0  0  0  0
   29.6000  -15.6260    2.9410 N   0  0  0  0  0  0  0  0  0  0  0  0
   38.3850  -12.2840   13.7190 N   0  0  0  0  0  0  0  0  0  0  0  0
   36.9530  -11.5920   11.6620 O   0  0  0  0  0  0  0  0  0  0  0  0
   28.9760  -13.5680    5.5940 O   0  0  0  0  0  0  0  0  0  0  0  0
   29.2380  -16.0740    1.7020 O   0  0  0  0  0  0  0  0  0  0  0  0
   39.0780  -12.8180   14.7540 O   0  0  0  0  0  0  0  0  0  0  0  0
  1  7  1  0  0  0  0
  2  8  1  0  0  0  0
  3  4  1  0  0  0  0
  4  1  1  0  0  0  0
  5 16  1  0  0  0  0
  6  5  1  0  0  0  0
  7 15  1  0  0  0  0
  8 11  1  0  0  0  0
  9 12  1  0  0  0  0
 10  1  1  0  0  0  0
 11 19  1  0  0  0  0
 12 17  1  0  0  0  0
 12 21  2  0  0  0  0
 13 10  1  0  0  0  0
 14 13  1  0  0  0  0
 15  2  1  0  0  0  0
 16 14  1  0  0  0  0
 16  3  1  0  0  0  0
 17  6  1  0  0  0  0
 18  9  1  0  0  0  0
 19 23  1  0  0  0  0
 20  8  2  0  0  0  0
 22 18  1  0  0  0  0
M  END
$$$$
