/Users/chinazoemeh/HopeMScP/data/ligands/ache/AChE_9_6O52/AChE_9_6O52.pdb
 OpenBabel07172512173D

 60 62  0  0  0  0  0  0  0  0999 V2000
    5.4690   33.4040   -9.5750 C   0  0  0  0  0  0  0  0  0  0  0  0
    4.7940   33.4880   -8.2260 C   0  0  0  0  0  0  0  0  0  0  0  0
    6.2620   34.5770  -10.1120 C   0  0  0  0  0  0  0  0  0  0  0  0
    3.5780   32.5890   -8.1860 C   0  0  0  0  0  0  0  0  0  0  0  0
    2.9420   32.5470   -6.8160 C   0  0  0  0  0  0  0  0  0  0  0  0
    2.9450   31.3640   -6.0950 C   0  0  0  0  0  0  0  0  0  0  0  0
    2.3660   31.3220   -4.8380 C   0  0  0  0  0  0  0  0  0  0  0  0
    1.7790   32.4590   -4.3100 C   0  0  0  0  0  0  0  0  0  0  0  0
    1.7790   33.6430   -5.0280 C   0  0  0  0  0  0  0  0  0  0  0  0
    8.2190   39.7940  -13.4070 N   0  0  0  0  0  4  0  0  0  0  0  0
    1.1980   32.4140   -3.0190 N   0  0  0  0  0  4  0  0  0  0  0  0
    2.3600   33.6870   -6.2840 C   0  0  0  0  0  0  0  0  0  0  0  0
    5.6100   35.1500  -11.3530 C   0  0  0  0  0  0  0  0  0  0  0  0
    6.3070   36.3790  -11.8970 C   0  0  0  0  0  0  0  0  0  0  0  0
    6.2080   37.5860  -11.2230 C   0  0  0  0  0  0  0  0  0  0  0  0
    6.8420   38.7150  -11.7230 C   0  0  0  0  0  0  0  0  0  0  0  0
    7.5730   38.6360  -12.9000 C   0  0  0  0  0  0  0  0  0  0  0  0
    7.6680   37.4280  -13.5750 C   0  0  0  0  0  0  0  0  0  0  0  0
    7.0350   36.3040  -13.0730 C   0  0  0  0  0  0  0  0  0  0  0  0
    8.8410   39.5000  -14.6480 C   0  0  0  0  0  0  0  0  0  0  0  0
    7.2510   40.8180  -13.5790 C   0  0  0  0  0  0  0  0  0  0  0  0
    9.2110   40.2120  -12.4830 C   0  0  0  0  0  0  0  0  0  0  0  0
   10.1330   39.0620  -12.1440 C   0  0  0  0  0  0  0  0  0  0  0  0
    2.0360   33.1810   -2.1650 C   0  0  0  0  0  0  0  0  0  0  0  0
    1.1460   31.0670   -2.5740 C   0  0  0  0  0  0  0  0  0  0  0  0
   -0.1130   32.9580   -3.0510 C   0  0  0  0  0  0  0  0  0  0  0  0
    2.1210   32.5930   -0.7730 C   0  0  0  0  0  0  0  0  0  0  0  0
    3.2120   32.8290   -0.0140 C   0  0  0  0  0  0  0  0  0  0  0  0
   11.0920   39.2190  -11.2090 C   0  0  0  0  0  0  0  0  0  0  0  0
    5.3680   32.3830  -10.2250 O   0  0  0  0  0  0  0  0  0  0  0  0
   -5.5300   33.4440   13.7890 C   0  0  0  0  0  0  0  0  0  0  0  0
   -4.8890   33.5310   12.4250 C   0  0  0  0  0  0  0  0  0  0  0  0
   -6.2900   34.6230   14.3580 C   0  0  0  0  0  0  0  0  0  0  0  0
   -3.7860   32.5050   12.3080 C   0  0  0  0  0  0  0  0  0  0  0  0
   -3.0990   32.5300   10.9630 C   0  0  0  0  0  0  0  0  0  0  0  0
   -3.1380   31.4050   10.1570 C   0  0  0  0  0  0  0  0  0  0  0  0
   -2.5090   31.4190    8.9240 C   0  0  0  0  0  0  0  0  0  0  0  0
   -1.8350   32.5540    8.5040 C   0  0  0  0  0  0  0  0  0  0  0  0
   -1.8010   33.6820    9.3080 C   0  0  0  0  0  0  0  0  0  0  0  0
   -8.1080   39.8520   17.6550 N   0  0  0  0  0  4  0  0  0  0  0  0
   -1.2050   32.5600    7.2350 N   0  0  0  0  0  4  0  0  0  0  0  0
   -2.4310   33.6690   10.5420 C   0  0  0  0  0  0  0  0  0  0  0  0
   -5.6570   35.1100   15.6430 C   0  0  0  0  0  0  0  0  0  0  0  0
   -6.3080   36.3660   16.1780 C   0  0  0  0  0  0  0  0  0  0  0  0
   -6.4320   37.4800   15.3630 C   0  0  0  0  0  0  0  0  0  0  0  0
   -7.0270   38.6340   15.8530 C   0  0  0  0  0  0  0  0  0  0  0  0
   -7.4970   38.6720   17.1590 C   0  0  0  0  0  0  0  0  0  0  0  0
   -7.3700   37.5560   17.9730 C   0  0  0  0  0  0  0  0  0  0  0  0
   -6.7760   36.4060   17.4820 C   0  0  0  0  0  0  0  0  0  0  0  0
   -8.6630   39.6050   18.9370 C   0  0  0  0  0  0  0  0  0  0  0  0
   -7.1340   40.8800   17.7470 C   0  0  0  0  0  0  0  0  0  0  0  0
   -9.1420   40.2460   16.7690 C   0  0  0  0  0  0  0  0  0  0  0  0
  -10.1040   39.1040   16.5250 C   0  0  0  0  0  0  0  0  0  0  0  0
   -1.9620   33.4310    6.4080 C   0  0  0  0  0  0  0  0  0  0  0  0
   -1.2130   31.2440    6.7040 C   0  0  0  0  0  0  0  0  0  0  0  0
    0.1350   33.0170    7.3400 C   0  0  0  0  0  0  0  0  0  0  0  0
   -2.4320   32.7350    5.1510 C   0  0  0  0  0  0  0  0  0  0  0  0
   -3.6760   32.9750    4.6900 C   0  0  0  0  0  0  0  0  0  0  0  0
  -10.9470   39.1570   15.4750 C   0  0  0  0  0  0  0  0  0  0  0  0
   -5.4270   32.4150   14.4290 O   0  0  0  0  0  0  0  0  0  0  0  0
  1  2  1  0  0  0  0
  2  4  1  0  0  0  0
  3  1  1  0  0  0  0
  4  5  1  0  0  0  0
  5 12  2  0  0  0  0
  5  6  1  0  0  0  0
  6  7  2  0  0  0  0
  7  8  1  0  0  0  0
  8 11  1  0  0  0  0
  9  8  2  0  0  0  0
 10 17  1  0  0  0  0
 10 22  1  0  0  0  0
 11 25  1  0  0  0  0
 11 24  1  0  0  0  0
 12  9  1  0  0  0  0
 13  3  1  0  0  0  0
 14 13  1  0  0  0  0
 14 15  1  0  0  0  0
 16 15  2  0  0  0  0
 17 16  1  0  0  0  0
 18 19  1  0  0  0  0
 18 17  2  0  0  0  0
 19 14  2  0  0  0  0
 20 10  1  0  0  0  0
 21 10  1  0  0  0  0
 22 23  1  0  0  0  0
 23 29  2  0  0  0  0
 24 27  1  0  0  0  0
 26 11  1  0  0  0  0
 27 28  2  0  0  0  0
 30  1  2  0  0  0  0
 31 33  1  0  0  0  0
 31 60  2  0  0  0  0
 32 31  1  0  0  0  0
 33 43  1  0  0  0  0
 34 32  1  0  0  0  0
 35 34  1  0  0  0  0
 36 35  2  0  0  0  0
 37 36  1  0  0  0  0
 38 37  2  0  0  0  0
 38 39  1  0  0  0  0
 39 42  2  0  0  0  0
 40 51  1  0  0  0  0
 40 50  1  0  0  0  0
 41 56  1  0  0  0  0
 41 38  1  0  0  0  0
 42 35  1  0  0  0  0
 43 44  1  0  0  0  0
 44 49  1  0  0  0  0
 45 46  1  0  0  0  0
 45 44  2  0  0  0  0
 46 47  2  0  0  0  0
 47 40  1  0  0  0  0
 47 48  1  0  0  0  0
 49 48  2  0  0  0  0
 52 40  1  0  0  0  0
 53 52  1  0  0  0  0
 54 41  1  0  0  0  0
 55 41  1  0  0  0  0
 57 54  1  0  0  0  0
 58 57  2  0  0  0  0
 59 53  2  0  0  0  0
M  END
$$$$
