/Users/chinazoemeh/HopeMScP/data/ligands/ache/AChE_12_7E3D/AChE_12_7E3D.pdb
 OpenBabel07172512173D

 56 58  0  0  1  0  0  0  0  0999 V2000
   13.3750  140.0930   75.0920 C   0  0  0  0  0  0  0  0  0  0  0  0
   13.3430  141.0790   73.9100 C   0  0  1  0  0  0  0  0  0  0  0  0
   14.5180  140.8290   72.9580 C   0  0  2  0  0  0  0  0  0  0  0  0
   15.8400  140.8560   73.7140 C   0  0  1  0  0  0  0  0  0  0  0  0
   15.7810  139.8160   74.8350 C   0  0  1  0  0  0  0  0  0  0  0  0
   17.0230  139.7510   75.6950 C   0  0  0  0  0  0  0  0  0  0  0  0
   11.1330  141.9100   73.2120 C   0  0  0  0  0  0  0  0  0  0  0  0
   11.4450  143.1520   73.9990 C   0  0  0  0  0  0  0  0  0  0  0  0
   12.0800  140.9640   73.2000 N   0  0  0  0  0  0  0  0  0  0  0  0
   14.5280  141.8310   71.9480 O   0  0  0  0  0  0  0  0  0  0  0  0
   16.9120  140.6060   72.8030 O   0  0  0  0  0  0  0  0  0  0  0  0
   14.6820  140.1150   75.7140 O   0  0  0  0  0  0  0  0  0  0  0  0
   17.4010  141.0490   76.1310 O   0  0  0  0  0  0  0  0  0  0  0  0
   10.0710  141.7710   72.6100 O   0  0  0  0  0  0  0  0  0  0  0  0
   18.0680  141.4860   72.9910 C   0  0  1  0  0  0  0  0  0  0  0  0
   19.3400  140.7340   72.5330 C   0  0  1  0  0  0  0  0  0  0  0  0
   20.5800  141.6320   72.6670 C   0  0  2  0  0  0  0  0  0  0  0  0
   20.3560  142.9870   72.0040 C   0  0  1  0  0  0  0  0  0  0  0  0
   19.0680  143.6130   72.5360 C   0  0  1  0  0  0  0  0  0  0  0  0
   18.7350  144.9580   71.9350 C   0  0  0  0  0  0  0  0  0  0  0  0
   19.3200  138.2940   72.8340 C   0  0  0  0  0  0  0  0  0  0  0  0
   19.5170  137.1620   73.7990 C   0  0  0  0  0  0  0  0  0  0  0  0
   19.5050  139.5240   73.3260 N   0  0  0  0  0  0  0  0  0  0  0  0
   21.6950  140.9890   72.0560 O   0  0  0  0  0  0  0  0  0  0  0  0
   21.4580  143.8520   72.2660 O   0  0  0  0  0  0  0  0  0  0  0  0
   17.9600  142.7380   72.2730 O   0  0  0  0  0  0  0  0  0  0  0  0
   17.9860  145.7430   72.8540 O   0  0  0  0  0  0  0  0  0  0  0  0
   19.0130  138.1050   71.6630 O   0  0  0  0  0  0  0  0  0  0  0  0
   -6.3410   95.7810   41.9640 C   0  0  0  0  0  0  0  0  0  0  0  0
   -5.8530   94.5740   42.7710 C   0  0  1  0  0  0  0  0  0  0  0  0
   -4.3420   94.4080   42.6340 C   0  0  2  0  0  0  0  0  0  0  0  0
   -3.9710   94.2630   41.1650 C   0  0  1  0  0  0  0  0  0  0  0  0
   -4.4710   95.5050   40.4090 C   0  0  1  0  0  0  0  0  0  0  0  0
   -4.2540   95.4300   38.9140 C   0  0  0  0  0  0  0  0  0  0  0  0
   -7.0250   93.7500   44.7530 C   0  0  0  0  0  0  0  0  0  0  0  0
   -7.4700   92.6020   43.8860 C   0  0  0  0  0  0  0  0  0  0  0  0
   -6.2460   94.6640   44.1660 N   0  0  0  0  0  0  0  0  0  0  0  0
   -3.8950   93.2800   43.3760 O   0  0  0  0  0  0  0  0  0  0  0  0
   -2.5610   94.0500   41.0710 O   0  0  0  0  0  0  0  0  0  0  0  0
   -5.8920   95.6580   40.5900 O   0  0  0  0  0  0  0  0  0  0  0  0
   -4.7130   94.1890   38.3940 O   0  0  0  0  0  0  0  0  0  0  0  0
   -7.3550   93.8410   45.9290 O   0  0  0  0  0  0  0  0  0  0  0  0
   -2.1460   93.0150   40.1170 C   0  0  1  0  0  0  0  0  0  0  0  0
   -0.8260   93.4910   39.4970 C   0  0  1  0  0  0  0  0  0  0  0  0
   -0.3430   92.5050   38.4290 C   0  0  2  0  0  0  0  0  0  0  0  0
   -0.2750   91.0940   39.0050 C   0  0  1  0  0  0  0  0  0  0  0  0
   -1.6140   90.7070   39.6360 C   0  0  1  0  0  0  0  0  0  0  0  0
   -1.5800   89.3390   40.2840 C   0  0  0  0  0  0  0  0  0  0  0  0
   -0.2580   95.8650   39.4790 C   0  0  0  0  0  0  0  0  0  0  0  0
    0.6430   95.5410   40.6380 C   0  0  0  0  0  0  0  0  0  0  0  0
   -0.9350   94.8370   38.9620 N   0  0  0  0  0  0  0  0  0  0  0  0
    0.9340   92.9040   37.9390 O   0  0  0  0  0  0  0  0  0  0  0  0
    0.0710   90.1560   37.9920 O   0  0  0  0  0  0  0  0  0  0  0  0
   -1.9750   91.6600   40.6520 O   0  0  0  0  0  0  0  0  0  0  0  0
   -2.1790   89.3280   41.5730 O   0  0  0  0  0  0  0  0  0  0  0  0
   -0.3610   97.0000   39.0310 O   0  0  0  0  0  0  0  0  0  0  0  0
  1 12  1  0  0  0  0
  2  9  1  6  0  0  0
  2  1  1  0  0  0  0
  3 10  1  6  0  0  0
  3  4  1  0  0  0  0
  3  2  1  0  0  0  0
  4 11  1  6  0  0  0
  4  5  1  0  0  0  0
  5  6  1  1  0  0  0
  5 12  1  0  0  0  0
  6 13  1  0  0  0  0
  7  8  1  0  0  0  0
  9  7  1  0  0  0  0
 14  7  2  0  0  0  0
 15 11  1  6  0  0  0
 16 17  1  0  0  0  0
 16 15  1  0  0  0  0
 16 23  1  1  0  0  0
 17 24  1  6  0  0  0
 18 25  1  1  0  0  0
 18 19  1  0  0  0  0
 18 17  1  0  0  0  0
 19 20  1  6  0  0  0
 20 27  1  0  0  0  0
 21 23  1  0  0  0  0
 21 22  1  0  0  0  0
 26 19  1  0  0  0  0
 26 15  1  0  0  0  0
 28 21  2  0  0  0  0
 29 30  1  0  0  0  0
 30 37  1  1  0  0  0
 31 30  1  0  0  0  0
 31 38  1  1  0  0  0
 32 39  1  1  0  0  0
 32 31  1  0  0  0  0
 33 34  1  6  0  0  0
 33 40  1  0  0  0  0
 33 32  1  0  0  0  0
 35 42  2  0  0  0  0
 36 35  1  0  0  0  0
 37 35  1  0  0  0  0
 40 29  1  0  0  0  0
 41 34  1  0  0  0  0
 43 54  1  0  0  0  0
 43 39  1  1  0  0  0
 44 51  1  6  0  0  0
 44 43  1  0  0  0  0
 45 52  1  1  0  0  0
 45 46  1  0  0  0  0
 45 44  1  0  0  0  0
 46 53  1  6  0  0  0
 46 47  1  0  0  0  0
 47 48  1  1  0  0  0
 47 54  1  0  0  0  0
 48 55  1  0  0  0  0
 49 50  1  0  0  0  0
 51 49  1  0  0  0  0
 56 49  2  0  0  0  0
M  END
$$$$
