/Users/chinazoemeh/HopeMScP/data/ligands/ache/AChE_52_6WVC/AChE_52_6WVC.pdb
 OpenBabel07172512173D

 70 72  0  0  1  0  0  0  0  0999 V2000
   -6.3520   86.2670  335.3820 C   0  0  0  0  0  0  0  0  0  0  0  0
   -5.7600   87.3900  334.5280 C   0  0  1  0  0  0  0  0  0  0  0  0
   -4.2600   87.5400  334.7860 C   0  0  2  0  0  0  0  0  0  0  0  0
   -3.9590   87.6610  336.2750 C   0  0  1  0  0  0  0  0  0  0  0  0
   -4.6190   86.5090  337.0360 C   0  0  1  0  0  0  0  0  0  0  0  0
   -4.4760   86.6140  338.5370 C   0  0  0  0  0  0  0  0  0  0  0  0
   -6.7600   87.9150  332.3380 C   0  0  0  0  0  0  0  0  0  0  0  0
   -7.3530   89.1340  332.9910 C   0  0  0  0  0  0  0  0  0  0  0  0
   -6.0080   87.1300  333.1190 N   0  0  0  0  0  0  0  0  0  0  0  0
   -3.7880   88.6990  334.1080 O   0  0  0  0  0  0  0  0  0  0  0  0
   -2.5410   87.6580  336.4520 O   0  0  0  0  0  0  0  0  0  0  0  0
   -6.0290   86.4880  336.7640 O   0  0  0  0  0  0  0  0  0  0  0  0
   -4.6090   87.9590  338.9790 O   0  0  0  0  0  0  0  0  0  0  0  0
   -6.9510   87.6540  331.1530 O   0  0  0  0  0  0  0  0  0  0  0  0
   -2.0900   88.7420  337.3270 C   0  0  1  0  0  0  0  0  0  0  0  0
   -0.7490   88.3040  337.9410 C   0  0  1  0  0  0  0  0  0  0  0  0
   -0.2330   89.3840  338.8940 C   0  0  2  0  0  0  0  0  0  0  0  0
   -0.1880   90.7420  338.2000 C   0  0  1  0  0  0  0  0  0  0  0  0
   -1.5240   91.0660  337.5250 C   0  0  1  0  0  0  0  0  0  0  0  0
   -1.4810   92.3320  336.6990 C   0  0  0  0  0  0  0  0  0  0  0  0
   -0.3950   85.8930  338.1570 C   0  0  0  0  0  0  0  0  0  0  0  0
   -0.6420   84.6670  338.9840 C   0  0  0  0  0  0  0  0  0  0  0  0
   -0.8970   87.0350  338.6340 N   0  0  0  0  0  0  0  0  0  0  0  0
    1.0750   89.0310  339.3350 O   0  0  0  0  0  0  0  0  0  0  0  0
    0.1280   91.7620  339.1430 O   0  0  0  0  0  0  0  0  0  0  0  0
   -1.8990   90.0030  336.6310 O   0  0  0  0  0  0  0  0  0  0  0  0
   -2.5530   92.3770  335.7660 O   0  0  0  0  0  0  0  0  0  0  0  0
    0.2340   85.8530  337.1040 O   0  0  0  0  0  0  0  0  0  0  0  0
   29.6440   32.4220  345.2640 C   0  0  0  0  0  0  0  0  0  0  0  0
   28.6330   31.8690  344.2450 C   0  0  1  0  0  0  0  0  0  0  0  0
   28.1330   32.9340  343.3200 C   0  0  2  0  0  0  0  0  0  0  0  0
   27.6440   34.1380  344.0950 C   0  0  1  0  0  0  0  0  0  0  0  0
   28.6770   34.5850  345.1250 C   0  0  1  0  0  0  0  0  0  0  0  0
   28.0940   35.6040  346.0690 C   0  0  0  0  0  0  0  0  0  0  0  0
   28.6300   29.5850  343.4070 C   0  0  0  0  0  0  0  0  0  0  0  0
   27.3280   29.4450  344.1400 C   0  0  0  0  0  0  0  0  0  0  0  0
   29.2040   30.7910  343.4620 N   0  0  0  0  0  0  0  0  0  0  0  0
   27.0440   32.3380  342.6260 O   0  0  0  0  0  0  0  0  0  0  0  0
   27.4210   35.2000  343.1780 O   0  0  0  0  0  0  0  0  0  0  0  0
   29.0840   33.4830  345.9480 O   0  0  0  0  0  0  0  0  0  0  0  0
   26.7620   35.2080  346.3660 O   0  0  0  0  0  0  0  0  0  0  0  0
   29.1040   28.6690  342.7700 O   0  0  0  0  0  0  0  0  0  0  0  0
   26.0520   35.6230  343.2470 C   0  0  1  0  0  0  0  0  0  0  0  0
   26.0170   36.9610  342.5060 C   0  0  1  0  0  0  0  0  0  0  0  0
   24.5800   37.4830  342.3700 C   0  0  2  0  0  0  0  0  0  0  0  0
   23.6380   36.3980  341.8600 C   0  0  1  0  0  0  0  0  0  0  0  0
   23.8130   35.1130  342.6640 C   0  0  1  0  0  0  0  0  0  0  0  0
   23.0010   33.9520  342.1330 C   0  0  0  0  0  0  0  0  0  0  0  0
   27.9990   38.3940  342.6770 C   0  0  0  0  0  0  0  0  0  0  0  0
   28.7490   39.3860  343.5180 C   0  0  0  0  0  0  0  0  0  0  0  0
   26.8550   37.9330  343.1920 N   0  0  0  0  0  0  0  0  0  0  0  0
   24.5760   38.5750  341.4530 O   0  0  0  0  0  0  0  0  0  0  0  0
   22.2900   36.8450  341.9740 O   0  0  0  0  0  0  0  0  0  0  0  0
   25.1880   34.7100  342.6150 O   0  0  0  0  0  0  0  0  0  0  0  0
   23.5500   32.7070  342.5480 O   0  0  0  0  0  0  0  0  0  0  0  0
   28.4070   38.0320  341.5770 O   0  0  0  0  0  0  0  0  0  0  0  0
   26.0510   66.7850  372.6110 C   0  0  0  0  0  0  0  0  0  0  0  0
   25.4640   65.9890  373.7890 C   0  0  1  0  0  0  0  0  0  0  0  0
   26.0370   64.5700  373.8140 C   0  0  2  0  0  0  0  0  0  0  0  0
   25.8740   63.8920  372.4620 C   0  0  1  0  0  0  0  0  0  0  0  0
   26.4740   64.7660  371.3680 C   0  0  1  0  0  0  0  0  0  0  0  0
   26.2820   64.1980  369.9830 C   0  0  0  0  0  0  0  0  0  0  0  0
   24.9690   67.6490  375.5350 C   0  0  0  0  0  0  0  0  0  0  0  0
   25.3920   68.2060  376.8610 C   0  0  0  0  0  0  0  0  0  0  0  0
   25.7240   66.6570  375.0540 N   0  0  0  0  0  0  0  0  0  0  0  0
   25.4010   63.7950  374.8270 O   0  0  0  0  0  0  0  0  0  0  0  0
   26.5430   62.6360  372.4820 O   0  0  0  0  0  0  0  0  0  0  0  0
   25.8480   66.0580  371.3820 O   0  0  0  0  0  0  0  0  0  0  0  0
   27.0840   64.9020  369.0440 O   0  0  0  0  0  0  0  0  0  0  0  0
   23.9890   68.0790  374.9250 O   0  0  0  0  0  0  0  0  0  0  0  0
  1 12  1  0  0  0  0
  2  9  1  6  0  0  0
  2  3  1  0  0  0  0
  2  1  1  0  0  0  0
  3 10  1  6  0  0  0
  3  4  1  0  0  0  0
  4 11  1  6  0  0  0
  4  5  1  0  0  0  0
  5  6  1  1  0  0  0
  6 13  1  0  0  0  0
  7  8  1  0  0  0  0
  7  9  1  0  0  0  0
 12  5  1  0  0  0  0
 14  7  2  0  0  0  0
 15 11  1  6  0  0  0
 15 16  1  0  0  0  0
 16 23  1  1  0  0  0
 16 17  1  0  0  0  0
 17 24  1  6  0  0  0
 18 17  1  0  0  0  0
 18 25  1  1  0  0  0
 19 20  1  6  0  0  0
 19 18  1  0  0  0  0
 21 23  1  0  0  0  0
 21 22  1  0  0  0  0
 26 15  1  0  0  0  0
 26 19  1  0  0  0  0
 27 20  1  0  0  0  0
 28 21  2  0  0  0  0
 29 40  1  0  0  0  0
 30 37  1  6  0  0  0
 30 29  1  0  0  0  0
 31 38  1  1  0  0  0
 31 32  1  0  0  0  0
 31 30  1  0  0  0  0
 32 39  1  6  0  0  0
 32 33  1  0  0  0  0
 33 40  1  0  0  0  0
 33 34  1  1  0  0  0
 34 41  1  0  0  0  0
 35 37  1  0  0  0  0
 35 36  1  0  0  0  0
 42 35  2  0  0  0  0
 43 39  1  6  0  0  0
 44 51  1  1  0  0  0
 44 43  1  0  0  0  0
 45 52  1  6  0  0  0
 45 44  1  0  0  0  0
 46 53  1  1  0  0  0
 46 45  1  0  0  0  0
 46 47  1  0  0  0  0
 47 48  1  6  0  0  0
 48 55  1  0  0  0  0
 49 51  1  0  0  0  0
 49 50  1  0  0  0  0
 54 47  1  0  0  0  0
 54 43  1  0  0  0  0
 56 49  2  0  0  0  0
 57 58  1  0  0  0  0
 58 59  1  0  0  0  0
 58 65  1  1  0  0  0
 59 66  1  1  0  0  0
 60 67  1  1  0  0  0
 60 59  1  0  0  0  0
 61 62  1  6  0  0  0
 61 68  1  0  0  0  0
 61 60  1  0  0  0  0
 63 64  1  0  0  0  0
 65 63  1  0  0  0  0
 68 57  1  0  0  0  0
 69 62  1  0  0  0  0
 70 63  2  0  0  0  0
M  END
$$$$
