/Users/chinazoemeh/HopeMScP/data/ligands/ache/AChE_11_6O69/AChE_11_6O69.pdb
 OpenBabel07172512173D

 28 29  0  0  1  0  0  0  0  0999 V2000
    5.2150  -38.2870  -23.4830 C   0  0  0  0  0  0  0  0  0  0  0  0
    5.4250  -39.1780  -24.7120 C   0  0  1  0  0  0  0  0  0  0  0  0
    6.6430  -40.0800  -24.5190 C   0  0  2  0  0  0  0  0  0  0  0  0
    7.8690  -39.2470  -24.1600 C   0  0  1  0  0  0  0  0  0  0  0  0
    7.5630  -38.3620  -22.9510 C   0  0  1  0  0  0  0  0  0  0  0  0
    8.6930  -37.4180  -22.6050 C   0  0  0  0  0  0  0  0  0  0  0  0
    3.4050  -39.7070  -26.0010 C   0  0  0  0  0  0  0  0  0  0  0  0
    3.7650  -38.5340  -26.8700 C   0  0  0  0  0  0  0  0  0  0  0  0
    4.2390  -39.9690  -24.9890 N   0  0  0  0  0  0  0  0  0  0  0  0
    6.8710  -40.8200  -25.7160 O   0  0  0  0  0  0  0  0  0  0  0  0
    8.9730  -40.0980  -23.8650 O   0  0  0  0  0  0  0  0  0  0  0  0
    6.4110  -37.5450  -23.2160 O   0  0  0  0  0  0  0  0  0  0  0  0
    8.9640  -36.5250  -23.6760 O   0  0  0  0  0  0  0  0  0  0  0  0
    2.4040  -40.3850  -26.2050 O   0  0  0  0  0  0  0  0  0  0  0  0
   10.1280  -39.7370  -24.6700 C   0  0  1  0  0  0  0  0  0  0  0  0
   11.3810  -40.3550  -24.0220 C   0  0  1  0  0  0  0  0  0  0  0  0
   12.6260  -40.0840  -24.8830 C   0  0  2  0  0  0  0  0  0  0  0  0
   12.3920  -40.4920  -26.3360 C   0  0  1  0  0  0  0  0  0  0  0  0
   11.1190  -39.8340  -26.8650 C   0  0  1  0  0  0  0  0  0  0  0  0
   10.7660  -40.2490  -28.2770 C   0  0  0  0  0  0  0  0  0  0  0  0
   11.2900  -40.5480  -21.5710 C   0  0  0  0  0  0  0  0  0  0  0  0
   11.5220  -39.8560  -20.2590 C   0  0  0  0  0  0  0  0  0  0  0  0
   11.5630  -39.8370  -22.6720 N   0  0  0  0  0  0  0  0  0  0  0  0
   13.7300  -40.8090  -24.3470 O   0  0  0  0  0  0  0  0  0  0  0  0
   13.5010  -40.1410  -27.1610 O   0  0  0  0  0  0  0  0  0  0  0  0
   10.0090  -40.2040  -26.0320 O   0  0  0  0  0  0  0  0  0  0  0  0
    9.6880  -39.4770  -28.7910 O   0  0  0  0  0  0  0  0  0  0  0  0
   10.8760  -41.7000  -21.6290 O   0  0  0  0  0  0  0  0  0  0  0  0
  1 12  1  0  0  0  0
  2  9  1  1  0  0  0
  2  3  1  0  0  0  0
  2  1  1  0  0  0  0
  3 10  1  6  0  0  0
  3  4  1  0  0  0  0
  4 11  1  1  0  0  0
  4  5  1  0  0  0  0
  5  6  1  6  0  0  0
  7  9  1  0  0  0  0
  8  7  1  0  0  0  0
 12  5  1  0  0  0  0
 13  6  1  0  0  0  0
 14  7  2  0  0  0  0
 15 16  1  0  0  0  0
 15 11  1  1  0  0  0
 16 23  1  1  0  0  0
 17 24  1  1  0  0  0
 17 16  1  0  0  0  0
 18 25  1  6  0  0  0
 18 17  1  0  0  0  0
 19 20  1  6  0  0  0
 19 18  1  0  0  0  0
 19 26  1  0  0  0  0
 21 22  1  0  0  0  0
 23 21  1  0  0  0  0
 26 15  1  0  0  0  0
 27 20  1  0  0  0  0
 28 21  2  0  0  0  0
M  END
$$$$
