/Users/chinazoemeh/HopeMScP/data/ligands/ache/AChE_21_6O5V/AChE_21_6O5V.pdb
 OpenBabel07172512173D

 24 20  0  0  0  0  0  0  0  0999 V2000
   91.4310   63.5760   14.3030 C   0  0  0  0  0  0  0  0  0  0  0  0
   92.2690   62.7000   15.0430 O   0  0  0  0  0  0  0  0  0  0  0  0
   91.5940   63.3440   12.7980 C   0  0  0  0  0  0  0  0  0  0  0  0
   90.3050   63.3890   12.2030 O   0  0  0  0  0  0  0  0  0  0  0  0
   92.3240   62.0200   12.5120 C   0  0  0  0  0  0  0  0  0  0  0  0
   92.2770   61.6580   11.1350 O   0  0  0  0  0  0  0  0  0  0  0  0
   92.8730   72.2650    7.6250 C   0  0  0  0  0  0  0  0  0  0  0  0
   92.5230   72.8620    6.3910 O   0  0  0  0  0  0  0  0  0  0  0  0
   93.2480   73.3160    8.6630 C   0  0  0  0  0  0  0  0  0  0  0  0
   93.3370   72.7070    9.9360 O   0  0  0  0  0  0  0  0  0  0  0  0
   92.1680   74.3780    8.6890 C   0  0  0  0  0  0  0  0  0  0  0  0
   92.6940   75.6260    9.0510 O   0  0  0  0  0  0  0  0  0  0  0  0
   99.9620   49.1920  -16.7420 C   0  0  0  0  0  0  0  0  0  0  0  0
   99.4170   49.2130  -15.4260 O   0  0  0  0  0  0  0  0  0  0  0  0
  100.5800   47.8270  -17.0720 C   0  0  0  0  0  0  0  0  0  0  0  0
   99.9320   46.8140  -16.3260 O   0  0  0  0  0  0  0  0  0  0  0  0
  100.4300   47.5000  -18.5580 C   0  0  0  0  0  0  0  0  0  0  0  0
  100.5450   48.6810  -19.3370 O   0  0  0  0  0  0  0  0  0  0  0  0
  108.9090   44.1690  -11.6850 C   0  0  0  0  0  0  0  0  0  0  0  0
  109.2920   43.8370  -10.3710 O   0  0  0  0  0  0  0  0  0  0  0  0
  110.1180   44.1720  -12.6160 C   0  0  0  0  0  0  0  0  0  0  0  0
  109.7410   44.2930  -13.9700 O   0  0  0  0  0  0  0  0  0  0  0  0
  111.0770   43.0150  -12.3180 C   0  0  0  0  0  0  0  0  0  0  0  0
  111.3330   42.2230  -13.4570 O   0  0  0  0  0  0  0  0  0  0  0  0
  1  2  1  0  0  0  0
  3  1  1  0  0  0  0
  4  3  1  0  0  0  0
  5  3  1  0  0  0  0
  6  5  1  0  0  0  0
  7  9  1  0  0  0  0
  8  7  1  0  0  0  0
  9 11  1  0  0  0  0
  9 10  1  0  0  0  0
 11 12  1  0  0  0  0
 13 14  1  0  0  0  0
 15 13  1  0  0  0  0
 15 16  1  0  0  0  0
 17 15  1  0  0  0  0
 18 17  1  0  0  0  0
 19 20  1  0  0  0  0
 21 23  1  0  0  0  0
 21 19  1  0  0  0  0
 22 21  1  0  0  0  0
 24 23  1  0  0  0  0
M  END
$$$$
