/Users/chinazoemeh/HopeMScP/data/ligands/ache/AChE_40_6CQZ/AChE_40_6CQZ.pdb
 OpenBabel07172512173D

 70 72  0  0  1  0  0  0  0  0999 V2000
   45.2430   -4.3340  335.0810 C   0  0  0  0  0  0  0  0  0  0  0  0
   45.9500   -3.1600  334.4110 C   0  0  1  0  0  0  0  0  0  0  0  0
   47.4300   -3.1290  334.7610 C   0  0  2  0  0  0  0  0  0  0  0  0
   47.6050   -3.1960  336.2700 C   0  0  1  0  0  0  0  0  0  0  0  0
   46.8720   -4.4090  336.8270 C   0  0  1  0  0  0  0  0  0  0  0  0
   47.0190   -4.4840  338.3420 C   0  0  0  0  0  0  0  0  0  0  0  0
   44.6740   -2.8040  332.3770 C   0  0  0  0  0  0  0  0  0  0  0  0
   44.0440   -1.5840  332.9820 C   0  0  0  0  0  0  0  0  0  0  0  0
   45.7830   -3.2340  332.9720 N   0  0  0  0  0  0  0  0  0  0  0  0
   48.0180   -1.9230  334.2620 O   0  0  0  0  0  0  0  0  0  0  0  0
   48.9980   -3.2890  336.5880 O   0  0  0  0  0  0  0  0  0  0  0  0
   45.4860   -4.3460  336.4890 O   0  0  0  0  0  0  0  0  0  0  0  0
   46.3270   -3.3840  338.9440 O   0  0  0  0  0  0  0  0  0  0  0  0
   44.1990   -3.3650  331.4040 O   0  0  0  0  0  0  0  0  0  0  0  0
   49.3360   -2.2270  337.4980 C   0  0  1  0  0  0  0  0  0  0  0  0
   50.7060   -2.5170  338.1380 C   0  0  1  0  0  0  0  0  0  0  0  0
   51.1340   -1.3650  339.0560 C   0  0  2  0  0  0  0  0  0  0  0  0
   51.0220   -0.0240  338.3440 C   0  0  1  0  0  0  0  0  0  0  0  0
   49.6230    0.1370  337.7590 C   0  0  1  0  0  0  0  0  0  0  0  0
   49.4410    1.4220  336.9830 C   0  0  0  0  0  0  0  0  0  0  0  0
   50.9110   -4.9550  338.3280 C   0  0  0  0  0  0  0  0  0  0  0  0
   50.8240   -6.1410  339.2380 C   0  0  0  0  0  0  0  0  0  0  0  0
   50.6710   -3.7630  338.8860 N   0  0  0  0  0  0  0  0  0  0  0  0
   52.4770   -1.5900  339.4790 O   0  0  0  0  0  0  0  0  0  0  0  0
   51.2850    1.0380  339.2560 O   0  0  0  0  0  0  0  0  0  0  0  0
   49.3650   -0.9450  336.8530 O   0  0  0  0  0  0  0  0  0  0  0  0
   50.2200    1.4080  335.7940 O   0  0  0  0  0  0  0  0  0  0  0  0
   51.1880   -5.0680  337.1380 O   0  0  0  0  0  0  0  0  0  0  0  0
   81.1980  -58.2210  345.0620 C   0  0  0  0  0  0  0  0  0  0  0  0
   80.4990  -58.5790  343.7540 C   0  0  1  0  0  0  0  0  0  0  0  0
   80.2530  -57.3430  342.9000 C   0  0  2  0  0  0  0  0  0  0  0  0
   79.5450  -56.2800  343.7240 C   0  0  1  0  0  0  0  0  0  0  0  0
   80.3340  -55.9940  344.9940 C   0  0  1  0  0  0  0  0  0  0  0  0
   79.6310  -54.9420  345.8440 C   0  0  0  0  0  0  0  0  0  0  0  0
   81.2480  -60.8410  343.2980 C   0  0  0  0  0  0  0  0  0  0  0  0
   79.8910  -61.3890  343.6270 C   0  0  0  0  0  0  0  0  0  0  0  0
   81.2920  -59.5430  343.0150 N   0  0  0  0  0  0  0  0  0  0  0  0
   79.4470  -57.6930  341.7700 O   0  0  0  0  0  0  0  0  0  0  0  0
   79.4210  -55.0790  342.9540 O   0  0  0  0  0  0  0  0  0  0  0  0
   80.4920  -57.1910  345.7570 O   0  0  0  0  0  0  0  0  0  0  0  0
   78.3950  -55.4730  346.3360 O   0  0  0  0  0  0  0  0  0  0  0  0
   82.2470  -61.5420  343.2920 O   0  0  0  0  0  0  0  0  0  0  0  0
   78.0660  -54.6060  343.0530 C   0  0  1  0  0  0  0  0  0  0  0  0
   77.9650  -53.2190  342.4260 C   0  0  1  0  0  0  0  0  0  0  0  0
   76.5340  -52.7000  342.4510 C   0  0  2  0  0  0  0  0  0  0  0  0
   75.5990  -53.7370  341.8470 C   0  0  1  0  0  0  0  0  0  0  0  0
   75.7750  -55.0720  342.5570 C   0  0  1  0  0  0  0  0  0  0  0  0
   74.8580  -56.1320  341.9570 C   0  0  0  0  0  0  0  0  0  0  0  0
   80.1400  -52.2330  342.8530 C   0  0  0  0  0  0  0  0  0  0  0  0
   80.9800  -51.5170  343.8690 C   0  0  0  0  0  0  0  0  0  0  0  0
   78.8390  -52.2940  343.1210 N   0  0  0  0  0  0  0  0  0  0  0  0
   76.4500  -51.4840  341.7010 O   0  0  0  0  0  0  0  0  0  0  0  0
   74.2440  -53.2960  341.9820 O   0  0  0  0  0  0  0  0  0  0  0  0
   77.1310  -55.5090  342.4580 O   0  0  0  0  0  0  0  0  0  0  0  0
   74.9290  -57.3260  342.7440 O   0  0  0  0  0  0  0  0  0  0  0  0
   80.6200  -52.7260  341.8450 O   0  0  0  0  0  0  0  0  0  0  0  0
   78.3860  -23.5070  370.3530 C   0  0  0  0  0  0  0  0  0  0  0  0
   79.6740  -24.3270  370.3410 C   0  0  1  0  0  0  0  0  0  0  0  0
   79.4940  -25.6610  371.0540 C   0  0  2  0  0  0  0  0  0  0  0  0
   78.8830  -25.4380  372.4290 C   0  0  1  0  0  0  0  0  0  0  0  0
   77.5990  -24.6300  372.3070 C   0  0  1  0  0  0  0  0  0  0  0  0
   76.9780  -24.3850  373.6770 C   0  0  0  0  0  0  0  0  0  0  0  0
   81.0200  -25.4480  368.6500 C   0  0  0  0  0  0  0  0  0  0  0  0
   80.4900  -26.7110  368.0390 C   0  0  0  0  0  0  0  0  0  0  0  0
   80.1070  -24.5360  368.9710 N   0  0  0  0  0  0  0  0  0  0  0  0
   80.7640  -26.3060  371.2010 O   0  0  0  0  0  0  0  0  0  0  0  0
   78.5980  -26.7020  373.0370 O   0  0  0  0  0  0  0  0  0  0  0  0
   77.8670  -23.3760  371.6770 O   0  0  0  0  0  0  0  0  0  0  0  0
   75.7000  -23.7590  373.5180 O   0  0  0  0  0  0  0  0  0  0  0  0
   82.2120  -25.2680  368.8390 O   0  0  0  0  0  0  0  0  0  0  0  0
  1 12  1  0  0  0  0
  2  9  1  6  0  0  0
  2  3  1  0  0  0  0
  2  1  1  0  0  0  0
  3 10  1  1  0  0  0
  3  4  1  0  0  0  0
  4 11  1  6  0  0  0
  4  5  1  0  0  0  0
  5  6  1  1  0  0  0
  6 13  1  0  0  0  0
  7  9  1  0  0  0  0
  7  8  1  0  0  0  0
 12  5  1  0  0  0  0
 14  7  2  0  0  0  0
 15 11  1  6  0  0  0
 15 16  1  0  0  0  0
 16 23  1  1  0  0  0
 16 17  1  0  0  0  0
 17 24  1  6  0  0  0
 18 17  1  0  0  0  0
 18 25  1  1  0  0  0
 19 20  1  6  0  0  0
 19 18  1  0  0  0  0
 21 23  1  0  0  0  0
 21 22  1  0  0  0  0
 26 15  1  0  0  0  0
 26 19  1  0  0  0  0
 27 20  1  0  0  0  0
 28 21  2  0  0  0  0
 29 40  1  0  0  0  0
 30 37  1  6  0  0  0
 30 29  1  0  0  0  0
 31 38  1  6  0  0  0
 31 32  1  0  0  0  0
 31 30  1  0  0  0  0
 32 39  1  6  0  0  0
 32 33  1  0  0  0  0
 33 40  1  0  0  0  0
 33 34  1  1  0  0  0
 34 41  1  0  0  0  0
 35 36  1  0  0  0  0
 37 35  1  0  0  0  0
 42 35  2  0  0  0  0
 43 39  1  6  0  0  0
 44 45  1  0  0  0  0
 44 43  1  0  0  0  0
 44 51  1  1  0  0  0
 45 52  1  6  0  0  0
 46 53  1  1  0  0  0
 46 45  1  0  0  0  0
 46 47  1  0  0  0  0
 47 48  1  6  0  0  0
 48 55  1  0  0  0  0
 49 51  1  0  0  0  0
 49 50  1  0  0  0  0
 54 47  1  0  0  0  0
 54 43  1  0  0  0  0
 56 49  2  0  0  0  0
 57 68  1  0  0  0  0
 58 65  1  6  0  0  0
 58 57  1  0  0  0  0
 58 59  1  0  0  0  0
 59 66  1  1  0  0  0
 59 60  1  0  0  0  0
 60 67  1  6  0  0  0
 61 60  1  0  0  0  0
 61 62  1  1  0  0  0
 63 70  2  0  0  0  0
 63 65  1  0  0  0  0
 64 63  1  0  0  0  0
 68 61  1  0  0  0  0
 69 62  1  0  0  0  0
M  END
$$$$
