/Users/chinazoemeh/HopeMScP/data/ligands/ache/AChE_3_7D9Q/AChE_3_7D9Q.pdb
 OpenBabel07172512173D

 56 58  0  0  1  0  0  0  0  0999 V2000
  -61.7280   -9.1230  -32.7700 C   0  0  0  0  0  0  0  0  0  0  0  0
  -62.5960   -8.7510  -33.9820 C   0  0  1  0  0  0  0  0  0  0  0  0
  -61.8680   -7.7720  -34.9040 C   0  0  2  0  0  0  0  0  0  0  0  0
  -61.2710   -6.6090  -34.1210 C   0  0  1  0  0  0  0  0  0  0  0  0
  -60.4310   -7.1570  -32.9710 C   0  0  1  0  0  0  0  0  0  0  0  0
  -59.8330   -6.0920  -32.0810 C   0  0  0  0  0  0  0  0  0  0  0  0
  -64.2350  -10.3860  -34.8310 C   0  0  0  0  0  0  0  0  0  0  0  0
  -65.2850   -9.5580  -34.1540 C   0  0  0  0  0  0  0  0  0  0  0  0
  -62.9760   -9.9490  -34.7170 N   0  0  0  0  0  0  0  0  0  0  0  0
  -62.7870   -7.2790  -35.8720 O   0  0  0  0  0  0  0  0  0  0  0  0
  -60.4680   -5.8250  -34.9920 O   0  0  0  0  0  0  0  0  0  0  0  0
  -61.2700   -7.9590  -32.1360 O   0  0  0  0  0  0  0  0  0  0  0  0
  -60.7950   -5.0980  -31.7650 O   0  0  0  0  0  0  0  0  0  0  0  0
  -64.5130  -11.4050  -35.4570 O   0  0  0  0  0  0  0  0  0  0  0  0
  -60.7410   -4.4220  -34.8330 C   0  0  1  0  0  0  0  0  0  0  0  0
  -59.5350   -3.6830  -35.4060 C   0  0  1  0  0  0  0  0  0  0  0  0
  -59.7480   -2.1670  -35.3670 C   0  0  2  0  0  0  0  0  0  0  0  0
  -61.1130   -1.7820  -35.9270 C   0  0  1  0  0  0  0  0  0  0  0  0
  -62.2000   -2.6130  -35.2600 C   0  0  1  0  0  0  0  0  0  0  0  0
  -63.5870   -2.3370  -35.7930 C   0  0  0  0  0  0  0  0  0  0  0  0
  -57.3470   -4.7850  -35.1960 C   0  0  0  0  0  0  0  0  0  0  0  0
  -56.1840   -5.0600  -34.2880 C   0  0  0  0  0  0  0  0  0  0  0  0
  -58.3280   -4.0400  -34.6790 N   0  0  0  0  0  0  0  0  0  0  0  0
  -58.7240   -1.5360  -36.1260 O   0  0  0  0  0  0  0  0  0  0  0  0
  -61.3620   -0.4020  -35.6870 O   0  0  0  0  0  0  0  0  0  0  0  0
  -61.9260   -4.0020  -35.4820 O   0  0  0  0  0  0  0  0  0  0  0  0
  -64.5780   -2.6650  -34.8280 O   0  0  0  0  0  0  0  0  0  0  0  0
  -57.3900   -5.2150  -36.3430 O   0  0  0  0  0  0  0  0  0  0  0  0
  -33.7000   48.6860  -42.3460 C   0  0  0  0  0  0  0  0  0  0  0  0
  -32.5290   48.7620  -43.3280 C   0  0  1  0  0  0  0  0  0  0  0  0
  -31.5430   47.6190  -43.0910 C   0  0  2  0  0  0  0  0  0  0  0  0
  -31.1750   47.5040  -41.6180 C   0  0  1  0  0  0  0  0  0  0  0  0
  -32.4440   47.4550  -40.7720 C   0  0  1  0  0  0  0  0  0  0  0  0
  -32.1950   47.4220  -39.2820 C   0  0  0  0  0  0  0  0  0  0  0  0
  -32.9520   49.7780  -45.5330 C   0  0  0  0  0  0  0  0  0  0  0  0
  -32.3130   51.0210  -44.9890 C   0  0  0  0  0  0  0  0  0  0  0  0
  -33.0190   48.7350  -44.6970 N   0  0  0  0  0  0  0  0  0  0  0  0
  -30.3730   47.8560  -43.8650 O   0  0  0  0  0  0  0  0  0  0  0  0
  -30.4210   46.3130  -41.4290 O   0  0  0  0  0  0  0  0  0  0  0  0
  -33.2150   48.6330  -41.0310 O   0  0  0  0  0  0  0  0  0  0  0  0
  -31.1790   48.3420  -38.9050 O   0  0  0  0  0  0  0  0  0  0  0  0
  -33.3830   49.7180  -46.6810 O   0  0  0  0  0  0  0  0  0  0  0  0
  -29.2400   46.5710  -40.6430 C   0  0  1  0  0  0  0  0  0  0  0  0
  -28.7780   45.2030  -40.1280 C   0  0  1  0  0  0  0  0  0  0  0  0
  -27.4700   45.3290  -39.3430 C   0  0  2  0  0  0  0  0  0  0  0  0
  -26.4390   46.1480  -40.1090 C   0  0  1  0  0  0  0  0  0  0  0  0
  -27.0530   47.4660  -40.5630 C   0  0  1  0  0  0  0  0  0  0  0  0
  -26.1160   48.3230  -41.3810 C   0  0  0  0  0  0  0  0  0  0  0  0
  -30.5340   43.5450  -39.6570 C   0  0  0  0  0  0  0  0  0  0  0  0
  -31.5600   43.0810  -38.6670 C   0  0  0  0  0  0  0  0  0  0  0  0
  -29.8120   44.6100  -39.2940 N   0  0  0  0  0  0  0  0  0  0  0  0
  -26.9570   44.0250  -39.0960 O   0  0  0  0  0  0  0  0  0  0  0  0
  -25.3190   46.4170  -39.2740 O   0  0  0  0  0  0  0  0  0  0  0  0
  -28.1930   47.1860  -41.3830 O   0  0  0  0  0  0  0  0  0  0  0  0
  -26.4860   49.6930  -41.3130 O   0  0  0  0  0  0  0  0  0  0  0  0
  -30.3640   42.9800  -40.7320 O   0  0  0  0  0  0  0  0  0  0  0  0
  1 12  1  0  0  0  0
  2  9  1  6  0  0  0
  2  1  1  0  0  0  0
  3 10  1  6  0  0  0
  3  4  1  0  0  0  0
  3  2  1  0  0  0  0
  4 11  1  6  0  0  0
  4  5  1  0  0  0  0
  5 12  1  0  0  0  0
  5  6  1  1  0  0  0
  6 13  1  0  0  0  0
  7  9  1  0  0  0  0
  7  8  1  0  0  0  0
 14  7  2  0  0  0  0
 15 11  1  6  0  0  0
 16 17  1  0  0  0  0
 16 15  1  0  0  0  0
 16 23  1  1  0  0  0
 17 24  1  6  0  0  0
 18 25  1  1  0  0  0
 18 17  1  0  0  0  0
 18 19  1  0  0  0  0
 19 20  1  6  0  0  0
 20 27  1  0  0  0  0
 21 23  1  0  0  0  0
 21 22  1  0  0  0  0
 26 19  1  0  0  0  0
 26 15  1  0  0  0  0
 28 21  2  0  0  0  0
 29 40  1  0  0  0  0
 30 37  1  6  0  0  0
 30 31  1  0  0  0  0
 30 29  1  0  0  0  0
 31 38  1  6  0  0  0
 31 32  1  0  0  0  0
 32 39  1  6  0  0  0
 32 33  1  0  0  0  0
 33 34  1  1  0  0  0
 34 41  1  0  0  0  0
 35 36  1  0  0  0  0
 35 37  1  0  0  0  0
 40 33  1  0  0  0  0
 42 35  2  0  0  0  0
 43 39  1  6  0  0  0
 43 44  1  0  0  0  0
 44 45  1  0  0  0  0
 44 51  1  1  0  0  0
 45 52  1  6  0  0  0
 46 45  1  0  0  0  0
 46 53  1  1  0  0  0
 47 48  1  6  0  0  0
 47 46  1  0  0  0  0
 48 55  1  0  0  0  0
 49 51  1  0  0  0  0
 49 50  1  0  0  0  0
 54 43  1  0  0  0  0
 54 47  1  0  0  0  0
 56 49  2  0  0  0  0
M  END
$$$$
