/Users/chinazoemeh/HopeMScP/data/ligands/ache/AChE_15_7RB7/AChE_15_7RB7.pdb
 OpenBabel07172512173D

 20 18  0  0  1  0  0  0  0  0999 V2000
   92.7150   62.9600   13.2820 N   0  0  0  0  0  4  0  0  0  0  0  0
   91.8220   61.8130   13.3280 C   0  0  0  0  0  0  0  0  0  0  0  0
   91.7350   61.2630   14.7520 C   0  0  0  0  0  0  0  0  0  0  0  0
   90.4950   59.6930   16.2660 C   0  0  2  0  0  0  0  0  0  0  0  0
   91.7650   59.3240   16.7280 O   0  0  0  0  0  0  0  0  0  0  0  0
   89.6080   58.4500   16.2470 C   0  0  0  0  0  0  0  0  0  0  0  0
   92.7650   63.4710   11.9250 C   0  0  0  0  0  0  0  0  0  0  0  0
   94.0520   62.5660   13.6910 C   0  0  0  0  0  0  0  0  0  0  0  0
   92.2260   64.0010   14.1690 C   0  0  0  0  0  0  0  0  0  0  0  0
   90.6150   60.2270   14.8380 C   0  0  0  0  0  0  0  0  0  0  0  0
  100.8290   48.8090  -17.1190 N   0  0  0  0  0  4  0  0  0  0  0  0
   99.3830   48.6710  -17.1580 C   0  0  0  0  0  0  0  0  0  0  0  0
   98.8720   48.8530  -18.5870 C   0  0  0  0  0  0  0  0  0  0  0  0
   96.9030   48.5440  -20.1070 C   0  0  2  0  0  0  0  0  0  0  0  0
   97.2010   49.8470  -20.5280 O   0  0  0  0  0  0  0  0  0  0  0  0
   95.3850   48.3730  -20.0770 C   0  0  0  0  0  0  0  0  0  0  0  0
  101.2910   48.5830  -15.7610 C   0  0  0  0  0  0  0  0  0  0  0  0
  101.2110   50.1450  -17.5400 C   0  0  0  0  0  0  0  0  0  0  0  0
  101.4390   47.8320  -18.0050 C   0  0  0  0  0  0  0  0  0  0  0  0
   97.4380   48.3340  -18.6900 C   0  0  0  0  0  0  0  0  0  0  0  0
  1  2  1  0  0  0  0
  1  8  1  0  0  0  0
  1  9  1  0  0  0  0
  2  3  1  0  0  0  0
  3 10  1  0  0  0  0
  4  6  1  6  0  0  0
  4  5  1  0  0  0  0
  7  1  1  0  0  0  0
 10  4  1  0  0  0  0
 11 17  1  0  0  0  0
 12 11  1  0  0  0  0
 13 12  1  0  0  0  0
 14 16  1  1  0  0  0
 14 20  1  0  0  0  0
 15 14  1  0  0  0  0
 18 11  1  0  0  0  0
 19 11  1  0  0  0  0
 20 13  1  0  0  0  0
M  END
$$$$
