/Users/chinazoemeh/HopeMScP/data/ligands/ache/AChE_64_5HF9/AChE_64_5HF9.pdb
 OpenBabel07172512173D

 70 72  0  0  1  0  0  0  0  0999 V2000
  -22.8660  -59.7230   21.9090 C   0  0  0  0  0  0  0  0  0  0  0  0
  -23.8860  -60.2370   20.8820 C   0  0  1  0  0  0  0  0  0  0  0  0
  -24.3090  -59.1140   19.9380 C   0  0  2  0  0  0  0  0  0  0  0  0
  -24.7890  -57.9070   20.7320 C   0  0  1  0  0  0  0  0  0  0  0  0
  -23.7260  -57.4970   21.7580 C   0  0  1  0  0  0  0  0  0  0  0  0
  -24.1470  -56.3570   22.6630 C   0  0  0  0  0  0  0  0  0  0  0  0
  -24.0830  -62.4890   19.9250 C   0  0  0  0  0  0  0  0  0  0  0  0
  -25.4700  -62.5090   20.5030 C   0  0  0  0  0  0  0  0  0  0  0  0
  -23.3710  -61.3740   20.1360 N   0  0  0  0  0  0  0  0  0  0  0  0
  -25.3520  -59.5730   19.0840 O   0  0  0  0  0  0  0  0  0  0  0  0
  -25.0670  -56.8450   19.8260 O   0  0  0  0  0  0  0  0  0  0  0  0
  -23.4180  -58.6110   22.6120 O   0  0  0  0  0  0  0  0  0  0  0  0
  -25.5160  -56.4540   23.0330 O   0  0  0  0  0  0  0  0  0  0  0  0
  -23.6280  -63.4390   19.2970 O   0  0  0  0  0  0  0  0  0  0  0  0
  -26.4180  -56.3740   20.0350 C   0  0  1  0  0  0  0  0  0  0  0  0
  -26.4660  -54.9050   19.6020 C   0  0  1  0  0  0  0  0  0  0  0  0
  -27.8800  -54.3440   19.7880 C   0  0  2  0  0  0  0  0  0  0  0  0
  -28.9030  -55.2340   19.0870 C   0  0  1  0  0  0  0  0  0  0  0  0
  -28.7420  -56.6830   19.5530 C   0  0  1  0  0  0  0  0  0  0  0  0
  -29.6620  -57.6460   18.8420 C   0  0  0  0  0  0  0  0  0  0  0  0
  -24.3950  -53.5920   19.7990 C   0  0  0  0  0  0  0  0  0  0  0  0
  -23.5060  -52.8160   20.7280 C   0  0  0  0  0  0  0  0  0  0  0  0
  -25.4970  -54.1180   20.3480 N   0  0  0  0  0  0  0  0  0  0  0  0
  -27.9370  -53.0150   19.2760 O   0  0  0  0  0  0  0  0  0  0  0  0
  -30.2300  -54.7800   19.3440 O   0  0  0  0  0  0  0  0  0  0  0  0
  -27.4000  -57.1280   19.3000 O   0  0  0  0  0  0  0  0  0  0  0  0
  -31.0230  -57.3460   19.1180 O   0  0  0  0  0  0  0  0  0  0  0  0
  -24.1330  -53.7260   18.6040 O   0  0  0  0  0  0  0  0  0  0  0  0
   25.3030  -54.3620  -11.8190 C   0  0  0  0  0  0  0  0  0  0  0  0
   26.0640  -53.2410  -11.1060 C   0  0  1  0  0  0  0  0  0  0  0  0
   25.3710  -51.9090  -11.3390 C   0  0  2  0  0  0  0  0  0  0  0  0
   25.2690  -51.6400  -12.8320 C   0  0  1  0  0  0  0  0  0  0  0  0
   24.5410  -52.8070  -13.5090 C   0  0  1  0  0  0  0  0  0  0  0  0
   24.5100  -52.6970  -15.0200 C   0  0  0  0  0  0  0  0  0  0  0  0
   27.3790  -53.8290   -9.1310 C   0  0  0  0  0  0  0  0  0  0  0  0
   28.5510  -53.9090  -10.0700 C   0  0  0  0  0  0  0  0  0  0  0  0
   26.2060  -53.5070   -9.6870 N   0  0  0  0  0  0  0  0  0  0  0  0
   26.0880  -50.8600  -10.7010 O   0  0  0  0  0  0  0  0  0  0  0  0
   24.5860  -50.4050  -13.0350 O   0  0  0  0  0  0  0  0  0  0  0  0
   25.1940  -54.0540  -13.2050 O   0  0  0  0  0  0  0  0  0  0  0  0
   25.7230  -52.1580  -15.5310 O   0  0  0  0  0  0  0  0  0  0  0  0
   27.4900  -54.0520   -7.9260 O   0  0  0  0  0  0  0  0  0  0  0  0
   25.3290  -49.4660  -13.8670 C   0  0  1  0  0  0  0  0  0  0  0  0
   24.3260  -48.4800  -14.4530 C   0  0  1  0  0  0  0  0  0  0  0  0
   25.0340  -47.5270  -15.4100 C   0  0  2  0  0  0  0  0  0  0  0  0
   26.1730  -46.8220  -14.6810 C   0  0  1  0  0  0  0  0  0  0  0  0
   27.1080  -47.8300  -14.0030 C   0  0  1  0  0  0  0  0  0  0  0  0
   28.1360  -47.1590  -13.1180 C   0  0  0  0  0  0  0  0  0  0  0  0
   22.0420  -49.3500  -14.5060 C   0  0  0  0  0  0  0  0  0  0  0  0
   21.0030  -50.0850  -15.3000 C   0  0  0  0  0  0  0  0  0  0  0  0
   23.2220  -49.1640  -15.1070 N   0  0  0  0  0  0  0  0  0  0  0  0
   24.1060  -46.5670  -15.9080 O   0  0  0  0  0  0  0  0  0  0  0  0
   26.9250  -46.0180  -15.5830 O   0  0  0  0  0  0  0  0  0  0  0  0
   26.3680  -48.7370  -13.1640 O   0  0  0  0  0  0  0  0  0  0  0  0
   29.0700  -48.0900  -12.5880 O   0  0  0  0  0  0  0  0  0  0  0  0
   21.8250  -48.9420  -13.3670 O   0  0  0  0  0  0  0  0  0  0  0  0
   -9.2330  -36.3930  -46.6520 C   0  0  0  0  0  0  0  0  0  0  0  0
  -10.7530  -36.1240  -46.6320 C   0  0  1  0  0  0  0  0  0  0  0  0
  -11.2150  -35.5280  -47.9720 C   0  0  2  0  0  0  0  0  0  0  0  0
  -10.8900  -36.4490  -49.1500 C   0  0  1  0  0  0  0  0  0  0  0  0
   -9.5380  -37.1310  -48.9570 C   0  0  1  0  0  0  0  0  0  0  0  0
   -8.7360  -37.2730  -50.2380 C   0  0  0  0  0  0  0  0  0  0  0  0
  -12.2970  -37.4950  -45.2790 C   0  0  0  0  0  0  0  0  0  0  0  0
  -12.9870  -38.8270  -45.1690 C   0  0  0  0  0  0  0  0  0  0  0  0
  -11.4940  -37.3420  -46.3400 N   0  0  0  0  0  0  0  0  0  0  0  0
  -10.6250  -34.2470  -48.1650 O   0  0  0  0  0  0  0  0  0  0  0  0
  -11.8990  -37.4380  -49.3370 O   0  0  0  0  0  0  0  0  0  0  0  0
   -8.7420  -36.3670  -48.0360 O   0  0  0  0  0  0  0  0  0  0  0  0
   -9.0520  -36.2840  -51.2100 O   0  0  0  0  0  0  0  0  0  0  0  0
  -12.4590  -36.6010  -44.4410 O   0  0  0  0  0  0  0  0  0  0  0  0
  1 12  1  0  0  0  0
  2  9  1  6  0  0  0
  2  1  1  0  0  0  0
  3 10  1  6  0  0  0
  3  4  1  0  0  0  0
  3  2  1  0  0  0  0
  4 11  1  6  0  0  0
  4  5  1  0  0  0  0
  5 12  1  0  0  0  0
  5  6  1  1  0  0  0
  6 13  1  0  0  0  0
  7  9  1  0  0  0  0
  7  8  1  0  0  0  0
 14  7  2  0  0  0  0
 15 11  1  6  0  0  0
 16 17  1  0  0  0  0
 16 15  1  0  0  0  0
 16 23  1  1  0  0  0
 17 24  1  6  0  0  0
 18 25  1  1  0  0  0
 18 19  1  0  0  0  0
 18 17  1  0  0  0  0
 19 20  1  6  0  0  0
 20 27  1  0  0  0  0
 21 23  1  0  0  0  0
 21 22  1  0  0  0  0
 26 19  1  0  0  0  0
 26 15  1  0  0  0  0
 28 21  2  0  0  0  0
 29 30  1  0  0  0  0
 30 37  1  1  0  0  0
 31 30  1  0  0  0  0
 31 38  1  1  0  0  0
 32 39  1  1  0  0  0
 32 31  1  0  0  0  0
 33 34  1  6  0  0  0
 33 40  1  0  0  0  0
 33 32  1  0  0  0  0
 35 42  2  0  0  0  0
 36 35  1  0  0  0  0
 37 35  1  0  0  0  0
 40 29  1  0  0  0  0
 41 34  1  0  0  0  0
 43 54  1  0  0  0  0
 43 39  1  1  0  0  0
 44 51  1  6  0  0  0
 44 43  1  0  0  0  0
 45 52  1  1  0  0  0
 45 46  1  0  0  0  0
 45 44  1  0  0  0  0
 46 53  1  6  0  0  0
 46 47  1  0  0  0  0
 47 54  1  0  0  0  0
 47 48  1  1  0  0  0
 48 55  1  0  0  0  0
 49 56  2  0  0  0  0
 50 49  1  0  0  0  0
 51 49  1  0  0  0  0
 57 58  1  0  0  0  0
 58 65  1  6  0  0  0
 59 66  1  6  0  0  0
 59 58  1  0  0  0  0
 60 67  1  1  0  0  0
 60 61  1  0  0  0  0
 60 59  1  0  0  0  0
 61 62  1  6  0  0  0
 61 68  1  0  0  0  0
 63 64  1  0  0  0  0
 63 70  2  0  0  0  0
 65 63  1  0  0  0  0
 68 57  1  0  0  0  0
 69 62  1  0  0  0  0
M  END
$$$$
