/Users/chinazoemeh/HopeMScP/data/ligands/ache/AChE_4_5HQ3/AChE_4_5HQ3.pdb
 OpenBabel07172512173D

 12 10  0  0  0  0  0  0  0  0999 V2000
  -40.0900   -7.5280   12.5960 P   0  0  2  0  0  0  0  0  0  0  0  0
  -39.8790   -8.6910   13.4200 O   0  0  0  0  0  0  0  0  0  0  0  0
  -41.4000   -6.7430   12.5850 O   0  0  0  0  0  0  0  0  0  0  0  0
  -39.2270   -7.5170   11.0420 C   0  0  0  0  0  0  0  0  0  0  0  0
  -41.6790   -6.1740   13.9150 C   0  0  0  0  0  0  0  0  0  0  0  0
  -40.5910   -5.1290   14.1870 C   0  0  0  0  0  0  0  0  0  0  0  0
  -43.4540    8.7910  -40.1780 P   0  0  1  0  0  0  0  0  0  0  0  0
  -43.1390    9.7430  -41.2630 O   0  0  0  0  0  0  0  0  0  0  0  0
  -43.1660    7.2840  -40.7520 O   0  0  0  0  0  0  0  0  0  0  0  0
  -42.3170    8.9470  -38.8370 C   0  0  0  0  0  0  0  0  0  0  0  0
  -43.8940    6.7320  -41.8580 C   0  0  0  0  0  0  0  0  0  0  0  0
  -42.8350    6.5880  -42.9240 C   0  0  0  0  0  0  0  0  0  0  0  0
  1  4  1  6  0  0  0
  1  2  2  0  0  0  0
  3  1  1  0  0  0  0
  3  5  1  0  0  0  0
  5  6  1  0  0  0  0
  7 10  1  1  0  0  0
  8  7  1  0  0  0  0
  9  7  1  0  0  0  0
 11  9  1  0  0  0  0
 12 11  1  0  0  0  0
M  END
$$$$
