/Users/chinazoemeh/HopeMScP/data/ligands/ache/AChE_45_6NTM/AChE_45_6NTM.pdb
 OpenBabel07172512173D

 98101  0  0  1  0  0  0  0  0999 V2000
   45.4720   -4.6550   11.5440 C   0  0  0  0  0  0  0  0  0  0  0  0
   46.0240   -3.3330   11.0490 C   0  0  1  0  0  0  0  0  0  0  0  0
   47.5330   -3.3130   11.1800 C   0  0  2  0  0  0  0  0  0  0  0  0
   47.9070   -3.4720   12.6460 C   0  0  1  0  0  0  0  0  0  0  0  0
   47.2730   -4.7260   13.2630 C   0  0  1  0  0  0  0  0  0  0  0  0
   47.3170   -4.6760   14.7760 C   0  0  0  0  0  0  0  0  0  0  0  0
   46.0010   -3.6170    8.5780 C   0  0  0  0  0  0  0  0  0  0  0  0
   45.3750   -3.1120    7.3120 C   0  0  0  0  0  0  0  0  0  0  0  0
   45.5800   -3.0230    9.6970 N   0  0  0  0  0  0  0  0  0  0  0  0
   48.0020   -2.0650   10.6920 O   0  0  0  0  0  0  0  0  0  0  0  0
   49.3240   -3.5270   12.7640 O   0  0  0  0  0  0  0  0  0  0  0  0
   45.8760   -4.8630   12.9150 O   0  0  0  0  0  0  0  0  0  0  0  0
   47.2510   -3.3320   15.2410 O   0  0  0  0  0  0  0  0  0  0  0  0
   46.8460   -4.5080    8.5800 O   0  0  0  0  0  0  0  0  0  0  0  0
   49.7440   -2.4540   13.6470 C   0  0  1  0  0  0  0  0  0  0  0  0
   51.2020   -2.7160   14.0500 C   0  0  1  0  0  0  0  0  0  0  0  0
   51.7150   -1.5830   14.9370 C   0  0  2  0  0  0  0  0  0  0  0  0
   51.4760   -0.2300   14.2800 C   0  0  1  0  0  0  0  0  0  0  0  0
   50.0100   -0.0910   13.8850 C   0  0  1  0  0  0  0  0  0  0  0  0
   49.7040    1.1950   13.1510 C   0  0  0  0  0  0  0  0  0  0  0  0
   51.9140   -5.0610   14.2060 C   0  0  0  0  0  0  0  0  0  0  0  0
   51.9320   -6.2950   15.0570 C   0  0  0  0  0  0  0  0  0  0  0  0
   51.3130   -3.9930   14.7380 N   0  0  0  0  0  0  0  0  0  0  0  0
   53.1060   -1.7680   15.1720 O   0  0  0  0  0  0  0  0  0  0  0  0
   51.8230    0.8170   15.1790 O   0  0  0  0  0  0  0  0  0  0  0  0
   49.6510   -1.1660   13.0070 O   0  0  0  0  0  0  0  0  0  0  0  0
   50.8470    1.6930   12.4700 O   0  0  0  0  0  0  0  0  0  0  0  0
   52.4230   -5.0330   13.0900 O   0  0  0  0  0  0  0  0  0  0  0  0
   78.6160  -24.7110   46.5020 C   0  0  0  0  0  0  0  0  0  0  0  0
   79.8460  -25.5530   46.7610 C   0  0  1  0  0  0  0  0  0  0  0  0
   79.4530  -26.7770   47.5720 C   0  0  2  0  0  0  0  0  0  0  0  0
   78.7570  -26.3560   48.8610 C   0  0  1  0  0  0  0  0  0  0  0  0
   77.6470  -25.3260   48.6250 C   0  0  1  0  0  0  0  0  0  0  0  0
   77.2430  -24.6400   49.9090 C   0  0  0  0  0  0  0  0  0  0  0  0
   81.7100  -25.4800   45.1670 C   0  0  0  0  0  0  0  0  0  0  0  0
   82.3530  -24.5120   46.1150 C   0  0  0  0  0  0  0  0  0  0  0  0
   80.5060  -25.9420   45.5250 N   0  0  0  0  0  0  0  0  0  0  0  0
   80.6140  -27.5430   47.8770 O   0  0  0  0  0  0  0  0  0  0  0  0
   78.1660  -27.4940   49.4750 O   0  0  0  0  0  0  0  0  0  0  0  0
   78.0740  -24.2770   47.7400 O   0  0  0  0  0  0  0  0  0  0  0  0
   78.4110  -24.2590   50.6260 O   0  0  0  0  0  0  0  0  0  0  0  0
   82.2530  -25.8250   44.1230 O   0  0  0  0  0  0  0  0  0  0  0  0
   78.7220  -27.6700   50.7810 C   0  0  1  0  0  0  0  0  0  0  0  0
   77.8370  -28.6380   51.5660 C   0  0  1  0  0  0  0  0  0  0  0  0
   78.4620  -28.9730   52.9250 C   0  0  2  0  0  0  0  0  0  0  0  0
   79.9330  -29.3480   52.7860 C   0  0  1  0  0  0  0  0  0  0  0  0
   80.6720  -28.3000   51.9650 C   0  0  1  0  0  0  0  0  0  0  0  0
   82.1150  -28.6580   51.6980 C   0  0  0  0  0  0  0  0  0  0  0  0
   75.4460  -28.4100   50.9940 C   0  0  0  0  0  0  0  0  0  0  0  0
   75.6880  -29.4150   49.9080 C   0  0  0  0  0  0  0  0  0  0  0  0
   76.5040  -28.0870   51.7490 N   0  0  0  0  0  0  0  0  0  0  0  0
   77.7490  -30.0550   53.5120 O   0  0  0  0  0  0  0  0  0  0  0  0
   80.5320  -29.4300   54.0740 O   0  0  0  0  0  0  0  0  0  0  0  0
   80.0320  -28.1700   50.6910 O   0  0  0  0  0  0  0  0  0  0  0  0
   82.2280  -29.6250   50.6640 O   0  0  0  0  0  0  0  0  0  0  0  0
   74.3390  -27.9130   51.1840 O   0  0  0  0  0  0  0  0  0  0  0  0
  -23.2650  -58.7650   21.6940 C   0  0  0  0  0  0  0  0  0  0  0  0
  -23.9860  -59.3440   20.4870 C   0  0  1  0  0  0  0  0  0  0  0  0
  -24.5260  -58.1970   19.6080 C   0  0  2  0  0  0  0  0  0  0  0  0
  -25.0330  -57.0120   20.4360 C   0  0  1  0  0  0  0  0  0  0  0  0
  -24.1560  -56.7700   21.6590 C   0  0  1  0  0  0  0  0  0  0  0  0
  -24.6280  -55.6920   22.6070 C   0  0  0  0  0  0  0  0  0  0  0  0
  -23.1280  -61.5120   19.6780 C   0  0  0  0  0  0  0  0  0  0  0  0
  -24.2210  -62.1550   20.4780 C   0  0  0  0  0  0  0  0  0  0  0  0
  -23.0740  -60.1760   19.7180 N   0  0  0  0  0  0  0  0  0  0  0  0
  -25.5690  -58.6950   18.7780 O   0  0  0  0  0  0  0  0  0  0  0  0
  -25.0450  -55.8270   19.6550 O   0  0  0  0  0  0  0  0  0  0  0  0
  -24.1020  -57.9860   22.3920 O   0  0  0  0  0  0  0  0  0  0  0  0
  -25.9890  -55.8770   22.9570 O   0  0  0  0  0  0  0  0  0  0  0  0
  -22.3290  -62.1730   19.0210 O   0  0  0  0  0  0  0  0  0  0  0  0
  -26.4070  -55.4160   19.7820 C   0  0  1  0  0  0  0  0  0  0  0  0
  -26.5750  -54.0480   19.1330 C   0  0  1  0  0  0  0  0  0  0  0  0
  -28.0500  -53.6360   19.1320 C   0  0  2  0  0  0  0  0  0  0  0  0
  -28.9300  -54.7500   18.5720 C   0  0  1  0  0  0  0  0  0  0  0  0
  -28.6330  -56.0590   19.2950 C   0  0  1  0  0  0  0  0  0  0  0  0
  -29.3990  -57.2470   18.7600 C   0  0  0  0  0  0  0  0  0  0  0  0
  -24.5690  -52.6420   19.3990 C   0  0  0  0  0  0  0  0  0  0  0  0
  -23.8790  -51.6220   20.2570 C   0  0  0  0  0  0  0  0  0  0  0  0
  -25.7680  -53.0570   19.8280 N   0  0  0  0  0  0  0  0  0  0  0  0
  -28.1960  -52.4580   18.3490 O   0  0  0  0  0  0  0  0  0  0  0  0
  -30.3070  -54.4240   18.7260 O   0  0  0  0  0  0  0  0  0  0  0  0
  -27.2450  -56.3620   19.1410 O   0  0  0  0  0  0  0  0  0  0  0  0
  -29.0250  -58.4380   19.4420 O   0  0  0  0  0  0  0  0  0  0  0  0
  -24.0690  -53.0630   18.3620 O   0  0  0  0  0  0  0  0  0  0  0  0
  -11.3140  -61.4470   46.0070 C   0  0  0  0  0  0  0  0  0  0  0  0
  -11.7470  -62.8670   46.3810 C   0  0  1  0  0  0  0  0  0  0  0  0
  -13.1330  -62.8460   47.0220 C   0  0  2  0  0  0  0  0  0  0  0  0
  -13.1750  -61.8550   48.1780 C   0  0  1  0  0  0  0  0  0  0  0  0
  -12.6830  -60.4860   47.7150 C   0  0  1  0  0  0  0  0  0  0  0  0
  -12.6140  -59.4690   48.8300 C   0  0  0  0  0  0  0  0  0  0  0  0
  -10.9960  -64.8430   45.1290 C   0  0  0  0  0  0  0  0  0  0  0  0
  -11.1110  -65.6140   43.8490 C   0  0  0  0  0  0  0  0  0  0  0  0
  -11.7380  -63.7340   45.2140 N   0  0  0  0  0  0  0  0  0  0  0  0
  -13.4570  -64.1510   47.4900 O   0  0  0  0  0  0  0  0  0  0  0  0
  -14.5050  -61.7340   48.6670 O   0  0  0  0  0  0  0  0  0  0  0  0
  -11.3590  -60.6050   47.1700 O   0  0  0  0  0  0  0  0  0  0  0  0
  -13.7370  -58.5970   48.8010 O   0  0  0  0  0  0  0  0  0  0  0  0
  -10.2670  -65.2080   46.0460 O   0  0  0  0  0  0  0  0  0  0  0  0
  1 12  1  0  0  0  0
  2  9  1  6  0  0  0
  2  3  1  0  0  0  0
  2  1  1  0  0  0  0
  3 10  1  1  0  0  0
  3  4  1  0  0  0  0
  4 11  1  6  0  0  0
  4  5  1  0  0  0  0
  5  6  1  1  0  0  0
  6 13  1  0  0  0  0
  7 14  2  0  0  0  0
  7  9  1  0  0  0  0
  8  7  1  0  0  0  0
 12  5  1  0  0  0  0
 15 11  1  6  0  0  0
 15 16  1  0  0  0  0
 16 23  1  1  0  0  0
 16 17  1  0  0  0  0
 17 24  1  6  0  0  0
 18 17  1  0  0  0  0
 18 25  1  1  0  0  0
 19 20  1  6  0  0  0
 19 18  1  0  0  0  0
 21 23  1  0  0  0  0
 21 22  1  0  0  0  0
 26 15  1  0  0  0  0
 26 19  1  0  0  0  0
 27 20  1  0  0  0  0
 28 21  2  0  0  0  0
 29 30  1  0  0  0  0
 29 40  1  0  0  0  0
 30 37  1  6  0  0  0
 30 31  1  0  0  0  0
 31 38  1  1  0  0  0
 31 32  1  0  0  0  0
 32 39  1  6  0  0  0
 33 32  1  0  0  0  0
 33 34  1  1  0  0  0
 34 41  1  0  0  0  0
 35 37  1  0  0  0  0
 35 36  1  0  0  0  0
 40 33  1  0  0  0  0
 42 35  2  0  0  0  0
 43 39  1  6  0  0  0
 43 44  1  0  0  0  0
 44 51  1  1  0  0  0
 44 45  1  0  0  0  0
 45 52  1  6  0  0  0
 46 45  1  0  0  0  0
 46 53  1  1  0  0  0
 47 48  1  6  0  0  0
 47 46  1  0  0  0  0
 49 56  2  0  0  0  0
 49 51  1  0  0  0  0
 50 49  1  0  0  0  0
 54 43  1  0  0  0  0
 54 47  1  0  0  0  0
 55 48  1  0  0  0  0
 57 68  1  0  0  0  0
 58 65  1  6  0  0  0
 58 57  1  0  0  0  0
 59 66  1  1  0  0  0
 59 60  1  0  0  0  0
 59 58  1  0  0  0  0
 60 67  1  6  0  0  0
 60 61  1  0  0  0  0
 61 68  1  0  0  0  0
 61 62  1  1  0  0  0
 62 69  1  0  0  0  0
 63 65  1  0  0  0  0
 63 64  1  0  0  0  0
 70 63  2  0  0  0  0
 71 67  1  6  0  0  0
 72 71  1  0  0  0  0
 72 79  1  1  0  0  0
 73 80  1  6  0  0  0
 73 72  1  0  0  0  0
 74 81  1  1  0  0  0
 74 73  1  0  0  0  0
 74 75  1  0  0  0  0
 75 76  1  6  0  0  0
 76 83  1  0  0  0  0
 77 79  1  0  0  0  0
 77 78  1  0  0  0  0
 82 75  1  0  0  0  0
 82 71  1  0  0  0  0
 84 77  2  0  0  0  0
 85 86  1  0  0  0  0
 85 96  1  0  0  0  0
 86 93  1  6  0  0  0
 86 87  1  0  0  0  0
 87 94  1  1  0  0  0
 87 88  1  0  0  0  0
 88 95  1  6  0  0  0
 89 88  1  0  0  0  0
 89 90  1  1  0  0  0
 91 93  1  0  0  0  0
 91 98  2  0  0  0  0
 92 91  1  0  0  0  0
 96 89  1  0  0  0  0
 97 90  1  0  0  0  0
M  END
$$$$
