/Users/chinazoemeh/HopeMScP/data/ligands/ache/AChE_42_6NTG/AChE_42_6NTG.pdb
 OpenBabel07172512173D

112115  0  0  1  0  0  0  0  0999 V2000
   22.9740   58.7410   21.8210 C   0  0  0  0  0  0  0  0  0  0  0  0
   23.7990   59.1790   20.6090 C   0  0  1  0  0  0  0  0  0  0  0  0
   24.0690   57.9890   19.6820 C   0  0  2  0  0  0  0  0  0  0  0  0
   24.5830   56.7730   20.4470 C   0  0  1  0  0  0  0  0  0  0  0  0
   23.7240   56.5090   21.6790 C   0  0  1  0  0  0  0  0  0  0  0  0
   24.2590   55.3980   22.5520 C   0  0  0  0  0  0  0  0  0  0  0  0
   23.7120   61.3700   19.4880 C   0  0  0  0  0  0  0  0  0  0  0  0
   25.1610   61.5130   19.8450 C   0  0  0  0  0  0  0  0  0  0  0  0
   23.1170   60.2380   19.8810 N   0  0  0  0  0  0  0  0  0  0  0  0
   25.0180   58.3710   18.6930 O   0  0  0  0  0  0  0  0  0  0  0  0
   24.3990   55.6300   19.6190 O   0  0  0  0  0  0  0  0  0  0  0  0
   23.6380   57.6870   22.4910 O   0  0  0  0  0  0  0  0  0  0  0  0
   25.6670   55.4910   22.7140 O   0  0  0  0  0  0  0  0  0  0  0  0
   23.1040   62.2410   18.8730 O   0  0  0  0  0  0  0  0  0  0  0  0
   25.4640   54.9520   18.8920 C   0  0  1  0  0  0  0  0  0  0  0  0
   26.9440   55.2930   19.1970 C   0  0  1  0  0  0  0  0  0  0  0  0
   27.8700   54.3000   18.4760 C   0  0  2  0  0  0  0  0  0  0  0  0
   27.4680   52.8580   18.7630 C   0  0  1  0  0  0  0  0  0  0  0  0
   25.9940   52.6480   18.4400 C   0  0  1  0  0  0  0  0  0  0  0  0
   25.4980   51.2640   18.7850 C   0  0  0  0  0  0  0  0  0  0  0  0
   28.1200   57.4580   19.4370 C   0  0  0  0  0  0  0  0  0  0  0  0
   28.7780   56.8890   20.6580 C   0  0  0  0  0  0  0  0  0  0  0  0
   27.2600   56.6550   18.7940 N   0  0  0  0  0  0  0  0  0  0  0  0
   29.2260   54.5020   18.8590 O   0  0  0  0  0  0  0  0  0  0  0  0
   28.2480   51.9730   17.9670 O   0  0  0  0  0  0  0  0  0  0  0  0
   25.2080   53.5670   19.2060 O   0  0  0  0  0  0  0  0  0  0  0  0
   24.2170   51.3170   19.4000 O   0  0  0  0  0  0  0  0  0  0  0  0
   28.3510   58.5990   19.0500 O   0  0  0  0  0  0  0  0  0  0  0  0
   59.7800    4.8020   11.3410 C   0  0  0  0  0  0  0  0  0  0  0  0
   59.2510    3.5750   10.5980 C   0  0  1  0  0  0  0  0  0  0  0  0
   57.7400    3.4740   10.7680 C   0  0  2  0  0  0  0  0  0  0  0  0
   57.3910    3.4310   12.2490 C   0  0  1  0  0  0  0  0  0  0  0  0
   57.9700    4.6600   12.9520 C   0  0  1  0  0  0  0  0  0  0  0  0
   57.7720    4.6410   14.4520 C   0  0  0  0  0  0  0  0  0  0  0  0
   60.0740    2.5470    8.5200 C   0  0  0  0  0  0  0  0  0  0  0  0
   60.2010    1.2740    9.3060 C   0  0  0  0  0  0  0  0  0  0  0  0
   59.6130    3.6110    9.1900 N   0  0  0  0  0  0  0  0  0  0  0  0
   57.2530    2.3090   10.1100 O   0  0  0  0  0  0  0  0  0  0  0  0
   55.9780    3.3550   12.4250 O   0  0  0  0  0  0  0  0  0  0  0  0
   59.3890    4.7340   12.7290 O   0  0  0  0  0  0  0  0  0  0  0  0
   57.9270    3.3270   14.9710 O   0  0  0  0  0  0  0  0  0  0  0  0
   60.3740    2.6090    7.3330 O   0  0  0  0  0  0  0  0  0  0  0  0
   55.6950    2.1870   13.2480 C   0  0  1  0  0  0  0  0  0  0  0  0
   54.2460    2.2490   13.7660 C   0  0  1  0  0  0  0  0  0  0  0  0
   53.9280    0.9990   14.5890 C   0  0  2  0  0  0  0  0  0  0  0  0
   54.2840   -0.2680   13.8200 C   0  0  1  0  0  0  0  0  0  0  0  0
   55.7220   -0.1960   13.3140 C   0  0  1  0  0  0  0  0  0  0  0  0
   56.1200   -1.3790   12.4630 C   0  0  0  0  0  0  0  0  0  0  0  0
   53.4750    4.5620   14.0940 C   0  0  0  0  0  0  0  0  0  0  0  0
   53.3500    5.6970   15.0650 C   0  0  0  0  0  0  0  0  0  0  0  0
   54.0430    3.4470   14.5660 N   0  0  0  0  0  0  0  0  0  0  0  0
   52.5440    0.9900   14.9220 O   0  0  0  0  0  0  0  0  0  0  0  0
   54.1420   -1.4060   14.6640 O   0  0  0  0  0  0  0  0  0  0  0  0
   55.8830    0.9720   12.4990 O   0  0  0  0  0  0  0  0  0  0  0  0
   57.3120   -1.1120   11.7380 O   0  0  0  0  0  0  0  0  0  0  0  0
   53.0790    4.6510   12.9350 O   0  0  0  0  0  0  0  0  0  0  0  0
   25.8950   24.2220   46.3800 C   0  0  0  0  0  0  0  0  0  0  0  0
   24.5920   24.9540   46.6780 C   0  0  1  0  0  0  0  0  0  0  0  0
   24.8850   26.2380   47.4530 C   0  0  2  0  0  0  0  0  0  0  0  0
   25.7320   25.9450   48.6880 C   0  0  1  0  0  0  0  0  0  0  0  0
   26.9590   25.1000   48.3240 C   0  0  1  0  0  0  0  0  0  0  0  0
   27.7150   24.5740   49.5230 C   0  0  0  0  0  0  0  0  0  0  0  0
   22.5870   24.8980   45.2630 C   0  0  0  0  0  0  0  0  0  0  0  0
   21.9910   25.2870   43.9430 C   0  0  0  0  0  0  0  0  0  0  0  0
   23.8630   25.2510   45.4560 N   0  0  0  0  0  0  0  0  0  0  0  0
   23.6640   26.8600   47.8350 O   0  0  0  0  0  0  0  0  0  0  0  0
   26.1290   27.1780   49.2850 O   0  0  0  0  0  0  0  0  0  0  0  0
   26.5590   23.9390   47.5840 O   0  0  0  0  0  0  0  0  0  0  0  0
   26.9720   23.5680   50.1970 O   0  0  0  0  0  0  0  0  0  0  0  0
   21.9440   24.2900   46.1140 O   0  0  0  0  0  0  0  0  0  0  0  0
   25.8820   27.0860   50.7190 C   0  0  1  0  0  0  0  0  0  0  0  0
   27.0350   27.7480   51.4650 C   0  0  1  0  0  0  0  0  0  0  0  0
   26.8490   27.5300   52.9570 C   0  0  2  0  0  0  0  0  0  0  0  0
   25.4870   28.0590   53.3970 C   0  0  1  0  0  0  0  0  0  0  0  0
   24.3480   27.5430   52.5050 C   0  0  1  0  0  0  0  0  0  0  0  0
   23.0410   28.2590   52.7550 C   0  0  0  0  0  0  0  0  0  0  0  0
   29.1230   27.9130   50.1790 C   0  0  0  0  0  0  0  0  0  0  0  0
   28.6090   29.2370   49.6940 C   0  0  0  0  0  0  0  0  0  0  0  0
   28.3270   27.2460   51.0240 N   0  0  0  0  0  0  0  0  0  0  0  0
   27.8900   28.1790   53.6780 O   0  0  0  0  0  0  0  0  0  0  0  0
   25.2350   27.6440   54.7350 O   0  0  0  0  0  0  0  0  0  0  0  0
   24.6440   27.7170   51.1080 O   0  0  0  0  0  0  0  0  0  0  0  0
   22.4950   28.7670   51.5450 O   0  0  0  0  0  0  0  0  0  0  0  0
   30.2090   27.4680   49.8230 O   0  0  0  0  0  0  0  0  0  0  0  0
   10.9170   61.8340   46.9010 C   0  0  0  0  0  0  0  0  0  0  0  0
   11.7970   60.6150   46.6160 C   0  0  1  0  0  0  0  0  0  0  0  0
   13.0370   60.6360   47.5040 C   0  0  2  0  0  0  0  0  0  0  0  0
   13.7810   61.9550   47.3430 C   0  0  1  0  0  0  0  0  0  0  0  0
   12.8380   63.1230   47.6150 C   0  0  1  0  0  0  0  0  0  0  0  0
   13.4780   64.4690   47.3640 C   0  0  0  0  0  0  0  0  0  0  0  0
   11.0150   58.4010   45.8880 C   0  0  0  0  0  0  0  0  0  0  0  0
   11.7850   58.6470   44.6240 C   0  0  0  0  0  0  0  0  0  0  0  0
   11.0570   59.3770   46.8020 N   0  0  0  0  0  0  0  0  0  0  0  0
   13.8860   59.5500   47.1530 O   0  0  0  0  0  0  0  0  0  0  0  0
   14.8790   62.0090   48.2470 O   0  0  0  0  0  0  0  0  0  0  0  0
   11.6950   63.0410   46.7490 O   0  0  0  0  0  0  0  0  0  0  0  0
   14.4960   64.7470   48.3150 O   0  0  0  0  0  0  0  0  0  0  0  0
   10.3840   57.3650   46.0720 O   0  0  0  0  0  0  0  0  0  0  0  0
   81.4250   19.4870   24.6250 C   0  0  0  0  0  0  0  0  0  0  0  0
   80.5750   18.7100   25.6170 C   0  0  1  0  0  0  0  0  0  0  0  0
   81.4790   18.0180   26.6310 C   0  0  2  0  0  0  0  0  0  0  0  0
   82.5020   17.1430   25.9150 C   0  0  1  0  0  0  0  0  0  0  0  0
   83.2540   17.9420   24.8500 C   0  0  1  0  0  0  0  0  0  0  0  0
   84.1340   17.0770   23.9750 C   0  0  0  0  0  0  0  0  0  0  0  0
   78.3000   19.3140   26.3200 C   0  0  0  0  0  0  0  0  0  0  0  0
   77.8520   18.0710   25.6080 C   0  0  0  0  0  0  0  0  0  0  0  0
   79.6130   19.5700   26.2880 N   0  0  0  0  0  0  0  0  0  0  0  0
   80.6920   17.2320   27.5190 O   0  0  0  0  0  0  0  0  0  0  0  0
   83.4430   16.6330   26.8520 O   0  0  0  0  0  0  0  0  0  0  0  0
   82.3290   18.5980   23.9720 O   0  0  0  0  0  0  0  0  0  0  0  0
   83.9820   15.6970   24.2810 O   0  0  0  0  0  0  0  0  0  0  0  0
   77.5070   20.0540   26.8960 O   0  0  0  0  0  0  0  0  0  0  0  0
  1 12  1  0  0  0  0
  2  9  1  6  0  0  0
  2  1  1  0  0  0  0
  3 10  1  6  0  0  0
  3  4  1  0  0  0  0
  3  2  1  0  0  0  0
  4 11  1  6  0  0  0
  4  5  1  0  0  0  0
  5 12  1  0  0  0  0
  5  6  1  1  0  0  0
  6 13  1  0  0  0  0
  7  8  1  0  0  0  0
  7  9  1  0  0  0  0
 14  7  2  0  0  0  0
 15 16  1  0  0  0  0
 15 26  1  0  0  0  0
 15 11  1  1  0  0  0
 16 23  1  6  0  0  0
 17 18  1  0  0  0  0
 17 24  1  1  0  0  0
 17 16  1  0  0  0  0
 18 25  1  6  0  0  0
 19 18  1  0  0  0  0
 19 20  1  1  0  0  0
 19 26  1  0  0  0  0
 20 27  1  0  0  0  0
 21 22  1  0  0  0  0
 23 21  1  0  0  0  0
 28 21  2  0  0  0  0
 29 40  1  0  0  0  0
 30 37  1  6  0  0  0
 30 31  1  0  0  0  0
 30 29  1  0  0  0  0
 31 38  1  6  0  0  0
 31 32  1  0  0  0  0
 32 39  1  6  0  0  0
 32 33  1  0  0  0  0
 33 34  1  1  0  0  0
 34 41  1  0  0  0  0
 35 37  1  0  0  0  0
 35 36  1  0  0  0  0
 40 33  1  0  0  0  0
 42 35  2  0  0  0  0
 43 39  1  6  0  0  0
 43 44  1  0  0  0  0
 44 51  1  1  0  0  0
 44 45  1  0  0  0  0
 45 52  1  6  0  0  0
 46 45  1  0  0  0  0
 46 53  1  1  0  0  0
 47 48  1  6  0  0  0
 47 46  1  0  0  0  0
 49 51  1  0  0  0  0
 49 50  1  0  0  0  0
 54 43  1  0  0  0  0
 54 47  1  0  0  0  0
 55 48  1  0  0  0  0
 56 49  2  0  0  0  0
 57 58  1  0  0  0  0
 57 68  1  0  0  0  0
 58 65  1  6  0  0  0
 58 59  1  0  0  0  0
 59 66  1  1  0  0  0
 59 60  1  0  0  0  0
 60 67  1  6  0  0  0
 61 60  1  0  0  0  0
 61 62  1  1  0  0  0
 62 69  1  0  0  0  0
 63 65  1  0  0  0  0
 63 70  2  0  0  0  0
 64 63  1  0  0  0  0
 68 61  1  0  0  0  0
 71 67  1  6  0  0  0
 71 82  1  0  0  0  0
 71 72  1  0  0  0  0
 72 79  1  6  0  0  0
 72 73  1  0  0  0  0
 73 74  1  0  0  0  0
 73 80  1  1  0  0  0
 74 81  1  1  0  0  0
 75 76  1  1  0  0  0
 75 74  1  0  0  0  0
 77 79  1  0  0  0  0
 78 77  1  0  0  0  0
 82 75  1  0  0  0  0
 83 76  1  0  0  0  0
 84 77  2  0  0  0  0
 86 93  1  1  0  0  0
 86 85  1  0  0  0  0
 86 87  1  0  0  0  0
 87 94  1  6  0  0  0
 88 87  1  0  0  0  0
 88 89  1  0  0  0  0
 88 95  1  1  0  0  0
 89 90  1  6  0  0  0
 90 97  1  0  0  0  0
 91 98  2  0  0  0  0
 91 93  1  0  0  0  0
 92 91  1  0  0  0  0
 96 85  1  0  0  0  0
 96 89  1  0  0  0  0
 99100  1  0  0  0  0
100107  1  1  0  0  0
100101  1  0  0  0  0
101108  1  1  0  0  0
102101  1  0  0  0  0
102109  1  1  0  0  0
103104  1  6  0  0  0
103102  1  0  0  0  0
104111  1  0  0  0  0
105112  2  0  0  0  0
106105  1  0  0  0  0
107105  1  0  0  0  0
110 99  1  0  0  0  0
110103  1  0  0  0  0
M  END
$$$$
