/Users/chinazoemeh/HopeMScP/data/ligands/ache/AChE_73_1B41/AChE_73_1B41.pdb
 OpenBabel07172512173D

 42 43  0  0  1  0  0  0  0  0999 V2000
  121.1740  103.6330 -113.8240 C   0  0  0  0  0  0  0  0  0  0  0  0
  120.8410  103.8940 -112.3420 C   0  0  1  0  0  0  0  0  0  0  0  0
  119.8180  105.0320 -112.2090 C   0  0  2  0  0  0  0  0  0  0  0  0
  120.3120  106.2740 -112.9560 C   0  0  1  0  0  0  0  0  0  0  0  0
  120.6310  105.9150 -114.4140 C   0  0  1  0  0  0  0  0  0  0  0  0
  121.2390  107.0900 -115.1790 C   0  0  0  0  0  0  0  0  0  0  0  0
  121.1450  101.8820 -111.0370 C   0  0  0  0  0  0  0  0  0  0  0  0
  121.2470  100.4370 -111.5040 C   0  0  0  0  0  0  0  0  0  0  0  0
  120.3270  102.6880 -111.7130 N   0  0  0  0  0  0  0  0  0  0  0  0
  119.6250  105.3470 -110.8360 O   0  0  0  0  0  0  0  0  0  0  0  0
  119.3040  107.3050 -112.9170 O   0  0  0  0  0  0  0  0  0  0  0  0
  121.6010  104.8480 -114.4630 O   0  0  0  0  0  0  0  0  0  0  0  0
  122.6670  107.1750 -114.9350 O   0  0  0  0  0  0  0  0  0  0  0  0
  121.8140  102.2600 -110.0710 O   0  0  0  0  0  0  0  0  0  0  0  0
  119.6470  108.5180 -112.3310 C   0  0  1  0  0  0  0  0  0  0  0  0
  118.5690  109.5580 -112.6730 C   0  0  1  0  0  0  0  0  0  0  0  0
  118.8150  110.8680 -111.9170 C   0  0  2  0  0  0  0  0  0  0  0  0
  118.9400  110.5910 -110.4150 C   0  0  1  0  0  0  0  0  0  0  0  0
  120.0290  109.5340 -110.1790 C   0  0  1  0  0  0  0  0  0  0  0  0
  120.1680  109.1580 -108.7170 C   0  0  0  0  0  0  0  0  0  0  0  0
  117.4970  109.4370 -114.8280 C   0  0  0  0  0  0  0  0  0  0  0  0
  116.5480  110.5360 -115.2880 C   0  0  0  0  0  0  0  0  0  0  0  0
  118.5510  109.8040 -114.1030 N   0  0  0  0  0  0  0  0  0  0  0  0
  117.7350  111.7630 -112.1490 O   0  0  0  0  0  0  0  0  0  0  0  0
  119.2660  111.7920 -109.7230 O   0  0  0  0  0  0  0  0  0  0  0  0
  119.7160  108.3200 -110.9050 O   0  0  0  0  0  0  0  0  0  0  0  0
  121.5340  109.0210 -108.3520 O   0  0  0  0  0  0  0  0  0  0  0  0
  117.2670  108.2640 -115.1270 O   0  0  0  0  0  0  0  0  0  0  0  0
  140.3630   92.9670 -132.4590 C   0  0  0  0  0  0  0  0  0  0  0  0
  140.8220   93.1730 -131.0030 C   0  0  1  0  0  0  0  0  0  0  0  0
  139.6680   93.7550 -130.1900 C   0  0  2  0  0  0  0  0  0  0  0  0
  139.2040   95.0680 -130.8380 C   0  0  1  0  0  0  0  0  0  0  0  0
  138.8550   94.8280 -132.3190 C   0  0  1  0  0  0  0  0  0  0  0  0
  138.4900   96.0980 -133.0610 C   0  0  0  0  0  0  0  0  0  0  0  0
  142.5060   91.8810 -129.8660 C   0  0  0  0  0  0  0  0  0  0  0  0
  142.6790   92.4580 -128.4670 C   0  0  0  0  0  0  0  0  0  0  0  0
  141.2910   91.9370 -130.4050 N   0  0  0  0  0  0  0  0  0  0  0  0
  140.0860   93.9850 -128.8510 O   0  0  0  0  0  0  0  0  0  0  0  0
  138.0630   95.5640 -130.1510 O   0  0  0  0  0  0  0  0  0  0  0  0
  139.9780   94.2350 -133.0160 O   0  0  0  0  0  0  0  0  0  0  0  0
  137.7090   95.8130 -134.2120 O   0  0  0  0  0  0  0  0  0  0  0  0
  143.4710   91.3860 -130.4490 O   0  0  0  0  0  0  0  0  0  0  0  0
  1  2  1  0  0  0  0
  2  3  1  0  0  0  0
  2  9  1  6  0  0  0
  3 10  1  1  0  0  0
  4 11  1  6  0  0  0
  4  3  1  0  0  0  0
  5  6  1  6  0  0  0
  5  4  1  0  0  0  0
  6 13  1  0  0  0  0
  7 14  2  0  0  0  0
  8  7  1  0  0  0  0
  9  7  1  0  0  0  0
 12  5  1  0  0  0  0
 12  1  1  0  0  0  0
 15 11  1  6  0  0  0
 15 26  1  0  0  0  0
 16 23  1  6  0  0  0
 16 15  1  0  0  0  0
 16 17  1  0  0  0  0
 17 24  1  1  0  0  0
 17 18  1  0  0  0  0
 18 19  1  0  0  0  0
 18 25  1  1  0  0  0
 19 20  1  1  0  0  0
 20 27  1  0  0  0  0
 21 23  1  0  0  0  0
 22 21  1  0  0  0  0
 26 19  1  0  0  0  0
 28 21  2  0  0  0  0
 29 30  1  0  0  0  0
 30 37  1  1  0  0  0
 30 31  1  0  0  0  0
 31 38  1  1  0  0  0
 32 31  1  0  0  0  0
 32 39  1  1  0  0  0
 33 34  1  6  0  0  0
 33 32  1  0  0  0  0
 35 36  1  0  0  0  0
 37 35  1  0  0  0  0
 40 29  1  0  0  0  0
 40 33  1  0  0  0  0
 41 34  1  0  0  0  0
 42 35  2  0  0  0  0
M  END
$$$$
