/Users/chinazoemeh/HopeMScP/data/ligands/ache/AChE_48_6WUV/AChE_48_6WUV.pdb
 OpenBabel07172512173D

126129  0  0  1  0  0  0  0  0999 V2000
   29.1360   32.2420  345.2270 C   0  0  0  0  0  0  0  0  0  0  0  0
   28.4430   31.9010  343.9130 C   0  0  1  0  0  0  0  0  0  0  0  0
   28.1530   33.1600  343.1050 C   0  0  2  0  0  0  0  0  0  0  0  0
   27.4720   34.2170  343.9670 C   0  0  1  0  0  0  0  0  0  0  0  0
   28.2230   34.4200  345.2770 C   0  0  1  0  0  0  0  0  0  0  0  0
   27.5020   35.4210  346.1710 C   0  0  0  0  0  0  0  0  0  0  0  0
   29.0720   29.6790  343.1670 C   0  0  0  0  0  0  0  0  0  0  0  0
   27.7850   29.2280  343.7920 C   0  0  0  0  0  0  0  0  0  0  0  0
   29.2680   30.9940  343.1380 N   0  0  0  0  0  0  0  0  0  0  0  0
   27.3080   32.8320  341.9960 O   0  0  0  0  0  0  0  0  0  0  0  0
   27.4200   35.4560  343.2500 O   0  0  0  0  0  0  0  0  0  0  0  0
   28.3380   33.1720  345.9570 O   0  0  0  0  0  0  0  0  0  0  0  0
   26.2650   34.8570  346.6200 O   0  0  0  0  0  0  0  0  0  0  0  0
   29.8850   28.8910  342.7150 O   0  0  0  0  0  0  0  0  0  0  0  0
   26.0430   35.8390  343.0880 C   0  0  1  0  0  0  0  0  0  0  0  0
   25.9650   37.3220  342.7470 C   0  0  1  0  0  0  0  0  0  0  0  0
   24.5190   37.7630  342.5510 C   0  0  2  0  0  0  0  0  0  0  0  0
   23.7840   36.8190  341.6070 C   0  0  1  0  0  0  0  0  0  0  0  0
   23.9900   35.3660  342.0190 C   0  0  1  0  0  0  0  0  0  0  0  0
   23.3170   34.4190  341.0340 C   0  0  0  0  0  0  0  0  0  0  0  0
   27.7330   38.7460  343.6030 C   0  0  0  0  0  0  0  0  0  0  0  0
   28.2580   39.5130  344.7800 C   0  0  0  0  0  0  0  0  0  0  0  0
   26.5840   38.1050  343.7990 N   0  0  0  0  0  0  0  0  0  0  0  0
   24.4940   39.0900  342.0140 O   0  0  0  0  0  0  0  0  0  0  0  0
   22.3850   37.1250  341.6200 O   0  0  0  0  0  0  0  0  0  0  0  0
   25.3870   35.0820  342.0730 O   0  0  0  0  0  0  0  0  0  0  0  0
   24.0970   34.3430  339.8350 O   0  0  0  0  0  0  0  0  0  0  0  0
   28.3220   38.7120  342.5350 O   0  0  0  0  0  0  0  0  0  0  0  0
   -7.2780   85.7730  334.7290 C   0  0  0  0  0  0  0  0  0  0  0  0
   -6.7790   87.0640  334.0930 C   0  0  1  0  0  0  0  0  0  0  0  0
   -5.2720   87.1730  334.2650 C   0  0  2  0  0  0  0  0  0  0  0  0
   -4.9380   87.1470  335.7500 C   0  0  1  0  0  0  0  0  0  0  0  0
   -5.5150   85.8860  336.4060 C   0  0  1  0  0  0  0  0  0  0  0  0
   -5.4170   85.9230  337.9120 C   0  0  0  0  0  0  0  0  0  0  0  0
   -8.0700   88.0660  332.2640 C   0  0  0  0  0  0  0  0  0  0  0  0
   -8.6830   88.9490  333.3180 C   0  0  0  0  0  0  0  0  0  0  0  0
   -7.1610   87.1780  332.6940 N   0  0  0  0  0  0  0  0  0  0  0  0
   -4.7970   88.3780  333.6770 O   0  0  0  0  0  0  0  0  0  0  0  0
   -3.5270   87.2180  335.9420 O   0  0  0  0  0  0  0  0  0  0  0  0
   -6.9170   85.7530  336.1130 O   0  0  0  0  0  0  0  0  0  0  0  0
   -5.7640   87.2220  338.3690 O   0  0  0  0  0  0  0  0  0  0  0  0
   -8.3840   88.1540  331.0800 O   0  0  0  0  0  0  0  0  0  0  0  0
   -3.2060   88.3450  336.8040 C   0  0  1  0  0  0  0  0  0  0  0  0
   -1.8520   88.1110  337.5010 C   0  0  1  0  0  0  0  0  0  0  0  0
   -1.5040   89.3140  338.3780 C   0  0  2  0  0  0  0  0  0  0  0  0
   -1.5150   90.5900  337.5450 C   0  0  1  0  0  0  0  0  0  0  0  0
   -2.8720   90.7500  336.8620 C   0  0  1  0  0  0  0  0  0  0  0  0
   -2.9400   91.9500  335.9430 C   0  0  0  0  0  0  0  0  0  0  0  0
   -1.1860   85.7850  337.9530 C   0  0  0  0  0  0  0  0  0  0  0  0
   -1.3160   84.6180  338.8890 C   0  0  0  0  0  0  0  0  0  0  0  0
   -1.8680   86.8870  338.2900 N   0  0  0  0  0  0  0  0  0  0  0  0
   -0.2290   89.1360  338.9870 O   0  0  0  0  0  0  0  0  0  0  0  0
   -1.2470   91.7210  338.3670 O   0  0  0  0  0  0  0  0  0  0  0  0
   -3.1560   89.5940  336.0550 O   0  0  0  0  0  0  0  0  0  0  0  0
   -4.2540   92.1350  335.4330 O   0  0  0  0  0  0  0  0  0  0  0  0
   -0.4970   85.7300  336.9380 O   0  0  0  0  0  0  0  0  0  0  0  0
   26.4080   66.8010  370.0750 C   0  0  0  0  0  0  0  0  0  0  0  0
   27.4860   65.7070  370.2460 C   0  0  1  0  0  0  0  0  0  0  0  0
   27.0250   64.6380  371.2630 C   0  0  2  0  0  0  0  0  0  0  0  0
   26.2750   65.2290  372.4550 C   0  0  1  0  0  0  0  0  0  0  0  0
   25.2970   66.2960  372.0010 C   0  0  1  0  0  0  0  0  0  0  0  0
   24.5780   66.9890  373.1300 C   0  0  0  0  0  0  0  0  0  0  0  0
   28.9780   65.0150  368.3990 C   0  0  0  0  0  0  0  0  0  0  0  0
   30.0920   65.6920  369.1470 C   0  0  0  0  0  0  0  0  0  0  0  0
   27.7670   65.0700  368.9680 N   0  0  0  0  0  0  0  0  0  0  0  0
   28.1510   63.8990  371.7230 O   0  0  0  0  0  0  0  0  0  0  0  0
   25.5060   64.2190  373.0930 O   0  0  0  0  0  0  0  0  0  0  0  0
   26.0420   67.2910  371.3080 O   0  0  0  0  0  0  0  0  0  0  0  0
   25.4900   67.2870  374.1760 O   0  0  0  0  0  0  0  0  0  0  0  0
   29.1630   64.4500  367.3190 O   0  0  0  0  0  0  0  0  0  0  0  0
   26.0270   63.9880  374.4000 C   0  0  1  0  0  0  0  0  0  0  0  0
   25.1000   62.9970  375.0780 C   0  0  1  0  0  0  0  0  0  0  0  0
   25.6320   62.6490  376.4600 C   0  0  2  0  0  0  0  0  0  0  0  0
   27.0410   62.0870  376.3320 C   0  0  1  0  0  0  0  0  0  0  0  0
   27.9410   63.0790  375.5950 C   0  0  1  0  0  0  0  0  0  0  0  0
   29.2990   62.5000  375.2720 C   0  0  0  0  0  0  0  0  0  0  0  0
   22.7360   63.0290  374.4100 C   0  0  0  0  0  0  0  0  0  0  0  0
   23.0900   61.9220  373.4580 C   0  0  0  0  0  0  0  0  0  0  0  0
   23.7390   63.5060  375.1590 N   0  0  0  0  0  0  0  0  0  0  0  0
   24.7780   61.6910  377.0730 O   0  0  0  0  0  0  0  0  0  0  0  0
   27.5800   61.8020  377.6180 O   0  0  0  0  0  0  0  0  0  0  0  0
   27.3520   63.4480  374.3370 O   0  0  0  0  0  0  0  0  0  0  0  0
   29.1990   61.1340  374.8900 O   0  0  0  0  0  0  0  0  0  0  0  0
   21.5930   63.4710  374.4960 O   0  0  0  0  0  0  0  0  0  0  0  0
   33.0330   84.1680  348.2870 C   0  0  0  0  0  0  0  0  0  0  0  0
   32.4700   85.3980  347.5610 C   0  0  1  0  0  0  0  0  0  0  0  0
   33.0080   86.7140  348.1780 C   0  0  2  0  0  0  0  0  0  0  0  0
   33.1650   86.6500  349.6960 C   0  0  1  0  0  0  0  0  0  0  0  0
   33.7040   85.3030  350.1530 C   0  0  1  0  0  0  0  0  0  0  0  0
   33.7620   85.1330  351.6550 C   0  0  0  0  0  0  0  0  0  0  0  0
   33.0980   86.0280  345.0970 C   0  0  0  0  0  0  0  0  0  0  0  0
   33.1400   87.5130  345.3120 C   0  0  0  0  0  0  0  0  0  0  0  0
   32.7920   85.2140  346.1360 N   0  0  0  0  0  0  0  0  0  0  0  0
   32.0370   87.7260  347.9330 O   0  0  0  0  0  0  0  0  0  0  0  0
   34.0460   87.6820  350.1280 O   0  0  0  0  0  0  0  0  0  0  0  0
   32.8350   84.2900  349.6460 O   0  0  0  0  0  0  0  0  0  0  0  0
   33.1510   86.2140  352.3450 O   0  0  0  0  0  0  0  0  0  0  0  0
   33.3320   85.5520  343.9880 O   0  0  0  0  0  0  0  0  0  0  0  0
   41.4460   29.5630  369.9470 C   0  0  0  0  0  0  0  0  0  0  0  0
   40.4990   28.7790  370.8220 C   0  0  1  0  0  0  0  0  0  0  0  0
   39.1190   29.5450  370.9580 C   0  0  2  0  0  0  0  0  0  0  0  0
   39.2840   31.0540  371.1970 C   0  0  1  0  0  0  0  0  0  0  0  0
   40.4090   31.5620  370.2660 C   0  0  1  0  0  0  0  0  0  0  0  0
   40.7330   33.0080  370.4140 C   0  0  0  0  0  0  0  0  0  0  0  0
   39.4450   26.5380  370.6530 C   0  0  0  0  0  0  0  0  0  0  0  0
   39.6080   25.2450  370.0020 C   0  0  0  0  0  0  0  0  0  0  0  0
   40.3260   27.4450  370.2410 N   0  0  0  0  0  0  0  0  0  0  0  0
   38.3070   28.8930  371.9480 O   0  0  0  0  0  0  0  0  0  0  0  0
   38.0510   31.7360  370.8990 O   0  0  0  0  0  0  0  0  0  0  0  0
   41.6350   30.8430  370.4630 O   0  0  0  0  0  0  0  0  0  0  0  0
   40.9510   33.6060  369.1410 O   0  0  0  0  0  0  0  0  0  0  0  0
   38.5420   26.8030  371.4770 O   0  0  0  0  0  0  0  0  0  0  0  0
  -28.7390   71.1560  347.9840 C   0  0  0  0  0  0  0  0  0  0  0  0
  -27.7230   72.0890  348.6750 C   0  0  1  0  0  0  0  0  0  0  0  0
  -28.0780   73.5860  348.5110 C   0  0  2  0  0  0  0  0  0  0  0  0
  -29.5810   73.8300  348.4820 C   0  0  1  0  0  0  0  0  0  0  0  0
  -30.2760   72.6790  349.1780 C   0  0  1  0  0  0  0  0  0  0  0  0
  -31.7590   72.8830  349.3820 C   0  0  0  0  0  0  0  0  0  0  0  0
  -26.3540   71.4620  350.6250 C   0  0  0  0  0  0  0  0  0  0  0  0
  -26.3740   71.0250  352.0620 C   0  0  0  0  0  0  0  0  0  0  0  0
  -27.5470   71.7070  350.0690 N   0  0  0  0  0  0  0  0  0  0  0  0
  -27.5040   74.0610  347.2970 O   0  0  0  0  0  0  0  0  0  0  0  0
  -29.9050   75.0660  349.1090 O   0  0  0  0  0  0  0  0  0  0  0  0
  -30.1290   71.5380  348.3360 O   0  0  0  0  0  0  0  0  0  0  0  0
  -32.1480   74.2070  349.0470 O   0  0  0  0  0  0  0  0  0  0  0  0
  -25.3060   71.6060  350.0050 O   0  0  0  0  0  0  0  0  0  0  0  0
  1 12  1  0  0  0  0
  2  9  1  6  0  0  0
  2  1  1  0  0  0  0
  3 10  1  6  0  0  0
  3  2  1  0  0  0  0
  3  4  1  0  0  0  0
  4 11  1  6  0  0  0
  4  5  1  0  0  0  0
  5 12  1  0  0  0  0
  5  6  1  1  0  0  0
  6 13  1  0  0  0  0
  7  8  1  0  0  0  0
  9  7  1  0  0  0  0
 14  7  2  0  0  0  0
 15 11  1  6  0  0  0
 16 15  1  0  0  0  0
 16 23  1  1  0  0  0
 17 24  1  6  0  0  0
 17 16  1  0  0  0  0
 18 25  1  1  0  0  0
 18 19  1  0  0  0  0
 18 17  1  0  0  0  0
 19 20  1  6  0  0  0
 19 26  1  0  0  0  0
 21 23  1  0  0  0  0
 21 22  1  0  0  0  0
 26 15  1  0  0  0  0
 27 20  1  0  0  0  0
 28 21  2  0  0  0  0
 29 40  1  0  0  0  0
 30 37  1  6  0  0  0
 30 31  1  0  0  0  0
 30 29  1  0  0  0  0
 31 38  1  1  0  0  0
 31 32  1  0  0  0  0
 32 39  1  6  0  0  0
 32 33  1  0  0  0  0
 33 34  1  1  0  0  0
 34 41  1  0  0  0  0
 35 37  1  0  0  0  0
 35 36  1  0  0  0  0
 40 33  1  0  0  0  0
 42 35  2  0  0  0  0
 43 39  1  6  0  0  0
 43 44  1  0  0  0  0
 44 51  1  1  0  0  0
 44 45  1  0  0  0  0
 45 52  1  6  0  0  0
 46 53  1  1  0  0  0
 46 45  1  0  0  0  0
 47 48  1  6  0  0  0
 47 46  1  0  0  0  0
 49 51  1  0  0  0  0
 49 50  1  0  0  0  0
 54 43  1  0  0  0  0
 54 47  1  0  0  0  0
 55 48  1  0  0  0  0
 56 49  2  0  0  0  0
 57 58  1  0  0  0  0
 57 68  1  0  0  0  0
 58 65  1  6  0  0  0
 58 59  1  0  0  0  0
 59 66  1  1  0  0  0
 59 60  1  0  0  0  0
 60 67  1  6  0  0  0
 61 60  1  0  0  0  0
 61 62  1  1  0  0  0
 62 69  1  0  0  0  0
 63 65  1  0  0  0  0
 63 64  1  0  0  0  0
 68 61  1  0  0  0  0
 70 63  2  0  0  0  0
 71 67  1  6  0  0  0
 71 72  1  0  0  0  0
 72 79  1  1  0  0  0
 72 73  1  0  0  0  0
 73 80  1  6  0  0  0
 74 73  1  0  0  0  0
 74 81  1  1  0  0  0
 75 76  1  6  0  0  0
 75 74  1  0  0  0  0
 77 84  2  0  0  0  0
 77 79  1  0  0  0  0
 78 77  1  0  0  0  0
 82 71  1  0  0  0  0
 82 75  1  0  0  0  0
 83 76  1  0  0  0  0
 85 96  1  0  0  0  0
 86 93  1  6  0  0  0
 86 87  1  0  0  0  0
 86 85  1  0  0  0  0
 87 94  1  1  0  0  0
 87 88  1  0  0  0  0
 88 95  1  6  0  0  0
 88 89  1  0  0  0  0
 89 90  1  1  0  0  0
 90 97  1  0  0  0  0
 91 92  1  0  0  0  0
 91 93  1  0  0  0  0
 96 89  1  0  0  0  0
 98 91  2  0  0  0  0
 99110  1  0  0  0  0
 99100  1  0  0  0  0
100107  1  6  0  0  0
100101  1  0  0  0  0
101102  1  0  0  0  0
101108  1  1  0  0  0
102109  1  6  0  0  0
103104  1  1  0  0  0
103110  1  0  0  0  0
103102  1  0  0  0  0
105112  2  0  0  0  0
106105  1  0  0  0  0
107105  1  0  0  0  0
111104  1  0  0  0  0
113124  1  0  0  0  0
113114  1  0  0  0  0
114121  1  1  0  0  0
115122  1  6  0  0  0
115114  1  0  0  0  0
116115  1  0  0  0  0
116123  1  1  0  0  0
116117  1  0  0  0  0
117118  1  6  0  0  0
119120  1  0  0  0  0
121119  1  0  0  0  0
124117  1  0  0  0  0
125118  1  0  0  0  0
126119  2  0  0  0  0
M  END
$$$$
