/Users/chinazoemeh/HopeMScP/data/ligands/ache/AChE_59_4EY7/AChE_59_4EY7.pdb
 OpenBabel07172512173D

 70 72  0  0  1  0  0  0  0  0999 V2000
  -23.0820  -59.1190   21.5600 C   0  0  0  0  0  0  0  0  0  0  0  0
  -23.8420  -59.6590   20.3340 C   0  0  1  0  0  0  0  0  0  0  0  0
  -24.4480  -58.5760   19.4400 C   0  0  2  0  0  0  0  0  0  0  0  0
  -25.0470  -57.4110   20.2120 C   0  0  1  0  0  0  0  0  0  0  0  0
  -24.0740  -56.9790   21.3060 C   0  0  1  0  0  0  0  0  0  0  0  0
  -24.6160  -55.8370   22.1620 C   0  0  0  0  0  0  0  0  0  0  0  0
  -22.9620  -61.8010   19.5770 C   0  0  0  0  0  0  0  0  0  0  0  0
  -24.3100  -62.4670   19.6570 C   0  0  0  0  0  0  0  0  0  0  0  0
  -22.9650  -60.4690   19.5070 N   0  0  0  0  0  0  0  0  0  0  0  0
  -25.4360  -59.1500   18.6150 O   0  0  0  0  0  0  0  0  0  0  0  0
  -25.2940  -56.3760   19.2840 O   0  0  0  0  0  0  0  0  0  0  0  0
  -23.8290  -58.0780   22.1490 O   0  0  0  0  0  0  0  0  0  0  0  0
  -25.9600  -56.1190   22.4810 O   0  0  0  0  0  0  0  0  0  0  0  0
  -21.9170  -62.4670   19.5840 O   0  0  0  0  0  0  0  0  0  0  0  0
  -26.6580  -55.8420   19.4050 C   0  0  1  0  0  0  0  0  0  0  0  0
  -26.7030  -54.4150   18.8470 C   0  0  1  0  0  0  0  0  0  0  0  0
  -28.1170  -53.8300   18.7420 C   0  0  2  0  0  0  0  0  0  0  0  0
  -29.1970  -54.8690   18.4190 C   0  0  1  0  0  0  0  0  0  0  0  0
  -28.9330  -56.1710   19.1700 C   0  0  1  0  0  0  0  0  0  0  0  0
  -29.9840  -57.2380   18.8850 C   0  0  0  0  0  0  0  0  0  0  0  0
  -24.7200  -53.0490   19.2270 C   0  0  0  0  0  0  0  0  0  0  0  0
  -23.7560  -52.5640   20.2730 C   0  0  0  0  0  0  0  0  0  0  0  0
  -25.8760  -53.5480   19.6690 N   0  0  0  0  0  0  0  0  0  0  0  0
  -28.1130  -52.8360   17.7380 O   0  0  0  0  0  0  0  0  0  0  0  0
  -30.4750  -54.3720   18.7690 O   0  0  0  0  0  0  0  0  0  0  0  0
  -27.6520  -56.6500   18.8150 O   0  0  0  0  0  0  0  0  0  0  0  0
  -29.8310  -58.2680   19.8370 O   0  0  0  0  0  0  0  0  0  0  0  0
  -24.4290  -52.9830   18.0320 O   0  0  0  0  0  0  0  0  0  0  0  0
   25.2730  -53.7960  -11.6790 C   0  0  0  0  0  0  0  0  0  0  0  0
   25.9350  -52.6670  -10.8830 C   0  0  1  0  0  0  0  0  0  0  0  0
   25.2960  -51.3130  -11.1900 C   0  0  2  0  0  0  0  0  0  0  0  0
   25.3150  -51.0460  -12.6890 C   0  0  1  0  0  0  0  0  0  0  0  0
   24.6390  -52.2330  -13.3790 C   0  0  1  0  0  0  0  0  0  0  0  0
   24.6110  -52.0640  -14.8970 C   0  0  0  0  0  0  0  0  0  0  0  0
   26.9740  -53.1550   -8.7420 C   0  0  0  0  0  0  0  0  0  0  0  0
   28.2860  -53.1800   -9.4770 C   0  0  0  0  0  0  0  0  0  0  0  0
   25.8730  -52.9420   -9.4610 N   0  0  0  0  0  0  0  0  0  0  0  0
   25.9480  -50.2820  -10.4860 O   0  0  0  0  0  0  0  0  0  0  0  0
   24.6270  -49.8340  -12.9320 O   0  0  0  0  0  0  0  0  0  0  0  0
   25.2840  -53.4540  -13.0500 O   0  0  0  0  0  0  0  0  0  0  0  0
   25.8770  -51.6220  -15.3320 O   0  0  0  0  0  0  0  0  0  0  0  0
   26.9380  -53.3270   -7.5240 O   0  0  0  0  0  0  0  0  0  0  0  0
   25.4130  -48.8690  -13.7270 C   0  0  1  0  0  0  0  0  0  0  0  0
   24.4560  -47.8950  -14.4080 C   0  0  1  0  0  0  0  0  0  0  0  0
   25.2070  -46.9560  -15.3480 C   0  0  2  0  0  0  0  0  0  0  0  0
   26.3890  -46.3130  -14.6250 C   0  0  1  0  0  0  0  0  0  0  0  0
   27.2080  -47.3430  -13.8420 C   0  0  1  0  0  0  0  0  0  0  0  0
   28.2710  -46.6460  -13.0000 C   0  0  0  0  0  0  0  0  0  0  0  0
   22.1780  -48.6600  -14.5980 C   0  0  0  0  0  0  0  0  0  0  0  0
   21.1890  -49.5390  -15.3070 C   0  0  0  0  0  0  0  0  0  0  0  0
   23.4050  -48.6060  -15.1110 N   0  0  0  0  0  0  0  0  0  0  0  0
   24.3300  -45.9480  -15.8020 O   0  0  0  0  0  0  0  0  0  0  0  0
   27.2200  -45.6580  -15.5590 O   0  0  0  0  0  0  0  0  0  0  0  0
   26.3820  -48.1360  -13.0040 O   0  0  0  0  0  0  0  0  0  0  0  0
   28.9380  -47.5990  -12.2040 O   0  0  0  0  0  0  0  0  0  0  0  0
   21.8480  -48.0340  -13.5890 O   0  0  0  0  0  0  0  0  0  0  0  0
   -8.5050  -35.7060  -46.6080 C   0  0  0  0  0  0  0  0  0  0  0  0
   -9.9500  -35.2290  -46.7640 C   0  0  1  0  0  0  0  0  0  0  0  0
  -10.6930  -36.1510  -47.7230 C   0  0  2  0  0  0  0  0  0  0  0  0
   -9.9770  -36.1480  -49.0700 C   0  0  1  0  0  0  0  0  0  0  0  0
   -8.5050  -36.5390  -48.8650 C   0  0  1  0  0  0  0  0  0  0  0  0
   -7.6970  -36.5860  -50.1740 C   0  0  0  0  0  0  0  0  0  0  0  0
  -10.9760  -33.9410  -44.9620 C   0  0  0  0  0  0  0  0  0  0  0  0
  -12.0960  -33.9360  -43.9570 C   0  0  0  0  0  0  0  0  0  0  0  0
  -10.6320  -35.1270  -45.4840 N   0  0  0  0  0  0  0  0  0  0  0  0
  -12.0300  -35.7300  -47.8720 O   0  0  0  0  0  0  0  0  0  0  0  0
  -10.6400  -37.0210  -49.9670 O   0  0  0  0  0  0  0  0  0  0  0  0
   -7.8740  -35.7120  -47.8830 O   0  0  0  0  0  0  0  0  0  0  0  0
   -8.0370  -35.5380  -51.0590 O   0  0  0  0  0  0  0  0  0  0  0  0
  -10.4190  -32.8810  -45.2610 O   0  0  0  0  0  0  0  0  0  0  0  0
  1 12  1  0  0  0  0
  2  9  1  6  0  0  0
  2  1  1  0  0  0  0
  3 10  1  1  0  0  0
  3  4  1  0  0  0  0
  3  2  1  0  0  0  0
  4 11  1  6  0  0  0
  4  5  1  0  0  0  0
  5 12  1  0  0  0  0
  5  6  1  1  0  0  0
  6 13  1  0  0  0  0
  7 14  2  0  0  0  0
  7  8  1  0  0  0  0
  9  7  1  0  0  0  0
 15 11  1  6  0  0  0
 16 15  1  0  0  0  0
 16 23  1  1  0  0  0
 17 24  1  6  0  0  0
 17 16  1  0  0  0  0
 18 17  1  0  0  0  0
 18 25  1  1  0  0  0
 18 19  1  0  0  0  0
 19 20  1  6  0  0  0
 20 27  1  0  0  0  0
 21 23  1  0  0  0  0
 21 22  1  0  0  0  0
 26 19  1  0  0  0  0
 26 15  1  0  0  0  0
 28 21  2  0  0  0  0
 29 30  1  0  0  0  0
 30 37  1  1  0  0  0
 31 30  1  0  0  0  0
 31 38  1  1  0  0  0
 32 39  1  1  0  0  0
 32 31  1  0  0  0  0
 33 34  1  6  0  0  0
 33 40  1  0  0  0  0
 33 32  1  0  0  0  0
 35 42  2  0  0  0  0
 36 35  1  0  0  0  0
 37 35  1  0  0  0  0
 40 29  1  0  0  0  0
 41 34  1  0  0  0  0
 43 54  1  0  0  0  0
 43 39  1  1  0  0  0
 44 51  1  6  0  0  0
 44 43  1  0  0  0  0
 45 52  1  1  0  0  0
 45 46  1  0  0  0  0
 45 44  1  0  0  0  0
 46 53  1  6  0  0  0
 46 47  1  0  0  0  0
 47 54  1  0  0  0  0
 47 48  1  1  0  0  0
 48 55  1  0  0  0  0
 49 56  2  0  0  0  0
 50 49  1  0  0  0  0
 51 49  1  0  0  0  0
 58 57  1  0  0  0  0
 58 65  1  1  0  0  0
 59 66  1  6  0  0  0
 59 58  1  0  0  0  0
 60 67  1  6  0  0  0
 60 61  1  0  0  0  0
 60 59  1  0  0  0  0
 61 62  1  6  0  0  0
 61 68  1  0  0  0  0
 63 64  1  0  0  0  0
 65 63  1  0  0  0  0
 68 57  1  0  0  0  0
 69 62  1  0  0  0  0
 70 63  2  0  0  0  0
M  END
$$$$
