/Users/chinazoemeh/HopeMScP/data/ligands/ache/AChE_36_6CQU/AChE_36_6CQU.pdb
 OpenBabel07172512173D

 98101  0  0  1  0  0  0  0  0999 V2000
  -33.8310   49.5640  -41.9150 C   0  0  0  0  0  0  0  0  0  0  0  0
  -32.8650   49.4350  -43.0870 C   0  0  1  0  0  0  0  0  0  0  0  0
  -32.3030   48.0220  -43.1780 C   0  0  2  0  0  0  0  0  0  0  0  0
  -31.7820   47.5520  -41.8250 C   0  0  1  0  0  0  0  0  0  0  0  0
  -32.8120   47.7940  -40.7290 C   0  0  1  0  0  0  0  0  0  0  0  0
  -32.2620   47.3970  -39.3640 C   0  0  0  0  0  0  0  0  0  0  0  0
  -32.9640   50.5710  -45.2290 C   0  0  0  0  0  0  0  0  0  0  0  0
  -31.4830   50.4000  -45.3950 C   0  0  0  0  0  0  0  0  0  0  0  0
  -33.5370   49.7830  -44.3240 N   0  0  0  0  0  0  0  0  0  0  0  0
  -31.2390   47.9920  -44.1360 O   0  0  0  0  0  0  0  0  0  0  0  0
  -31.4750   46.1550  -41.8920 O   0  0  0  0  0  0  0  0  0  0  0  0
  -33.1730   49.1740  -40.7120 O   0  0  0  0  0  0  0  0  0  0  0  0
  -31.8570   48.5710  -38.6520 O   0  0  0  0  0  0  0  0  0  0  0  0
  -33.6010   51.3810  -45.8820 O   0  0  0  0  0  0  0  0  0  0  0  0
  -30.4380   45.8630  -40.9380 C   0  0  1  0  0  0  0  0  0  0  0  0
  -30.0280   44.3940  -41.0640 C   0  0  1  0  0  0  0  0  0  0  0  0
  -28.5210   44.1640  -40.9390 C   0  0  2  0  0  0  0  0  0  0  0  0
  -27.8870   45.1000  -39.9110 C   0  0  1  0  0  0  0  0  0  0  0  0
  -28.3710   46.5510  -40.0160 C   0  0  1  0  0  0  0  0  0  0  0  0
  -27.1920   47.4940  -40.2310 C   0  0  0  0  0  0  0  0  0  0  0  0
  -30.7970   44.0010  -38.7970 C   0  0  0  0  0  0  0  0  0  0  0  0
  -32.1070   44.5990  -38.3760 C   0  0  0  0  0  0  0  0  0  0  0  0
  -30.7240   43.6070  -40.0650 N   0  0  0  0  0  0  0  0  0  0  0  0
  -27.9010   44.3670  -42.2140 O   0  0  0  0  0  0  0  0  0  0  0  0
  -28.1660   44.6080  -38.5940 O   0  0  0  0  0  0  0  0  0  0  0  0
  -29.3160   46.7350  -41.0740 O   0  0  0  0  0  0  0  0  0  0  0  0
  -26.3540   47.4830  -39.0700 O   0  0  0  0  0  0  0  0  0  0  0  0
  -29.8590   43.8850  -38.0250 O   0  0  0  0  0  0  0  0  0  0  0  0
  -34.3250   10.3990   -7.3530 C   0  0  0  0  0  0  0  0  0  0  0  0
  -34.7510    8.9340   -7.3840 C   0  0  1  0  0  0  0  0  0  0  0  0
  -36.0860    8.7290   -6.6810 C   0  0  2  0  0  0  0  0  0  0  0  0
  -36.0360    9.3440   -5.2920 C   0  0  1  0  0  0  0  0  0  0  0  0
  -35.6150   10.8040   -5.3830 C   0  0  1  0  0  0  0  0  0  0  0  0
  -35.5430   11.4360   -3.9980 C   0  0  0  0  0  0  0  0  0  0  0  0
  -33.7560    8.0850   -9.4270 C   0  0  0  0  0  0  0  0  0  0  0  0
  -33.1880    6.7530   -9.0360 C   0  0  0  0  0  0  0  0  0  0  0  0
  -34.8370    8.4700   -8.7550 N   0  0  0  0  0  0  0  0  0  0  0  0
  -36.3640    7.3280   -6.5770 O   0  0  0  0  0  0  0  0  0  0  0  0
  -37.3280    9.2540   -4.6810 O   0  0  0  0  0  0  0  0  0  0  0  0
  -34.3410   10.9120   -6.0190 O   0  0  0  0  0  0  0  0  0  0  0  0
  -35.3110   12.8440   -4.1270 O   0  0  0  0  0  0  0  0  0  0  0  0
  -33.2580    8.7710  -10.3050 O   0  0  0  0  0  0  0  0  0  0  0  0
  -37.1640    8.8280   -3.3160 C   0  0  1  0  0  0  0  0  0  0  0  0
  -38.4700    9.0410   -2.5560 C   0  0  1  0  0  0  0  0  0  0  0  0
  -38.3660    8.5460   -1.1210 C   0  0  2  0  0  0  0  0  0  0  0  0
  -37.8490    7.1160   -1.1040 C   0  0  1  0  0  0  0  0  0  0  0  0
  -36.5400    7.0260   -1.8760 C   0  0  1  0  0  0  0  0  0  0  0  0
  -36.0120    5.5970   -1.8860 C   0  0  0  0  0  0  0  0  0  0  0  0
  -39.4450   10.9940   -3.6160 C   0  0  0  0  0  0  0  0  0  0  0  0
  -40.6310   10.2410   -4.1420 C   0  0  0  0  0  0  0  0  0  0  0  0
  -38.8310   10.4450   -2.5710 N   0  0  0  0  0  0  0  0  0  0  0  0
  -39.6540    8.5990   -0.4990 O   0  0  0  0  0  0  0  0  0  0  0  0
  -37.6390    6.6970    0.2480 O   0  0  0  0  0  0  0  0  0  0  0  0
  -36.7280    7.4710   -3.2200 O   0  0  0  0  0  0  0  0  0  0  0  0
  -36.8960    4.7670   -2.6480 O   0  0  0  0  0  0  0  0  0  0  0  0
  -39.0680   12.0420   -4.1140 O   0  0  0  0  0  0  0  0  0  0  0  0
  -62.9380   -9.1920  -32.4500 C   0  0  0  0  0  0  0  0  0  0  0  0
  -63.6070   -8.6930  -33.7270 C   0  0  1  0  0  0  0  0  0  0  0  0
  -62.6390   -7.8910  -34.5850 C   0  0  2  0  0  0  0  0  0  0  0  0
  -61.9870   -6.8030  -33.7460 C   0  0  1  0  0  0  0  0  0  0  0  0
  -61.3420   -7.4150  -32.5100 C   0  0  1  0  0  0  0  0  0  0  0  0
  -60.6970   -6.3380  -31.6450 C   0  0  0  0  0  0  0  0  0  0  0  0
  -65.3020  -10.3670  -34.1890 C   0  0  0  0  0  0  0  0  0  0  0  0
  -66.3770   -9.4150  -33.7540 C   0  0  0  0  0  0  0  0  0  0  0  0
  -64.1290   -9.8140  -34.4850 N   0  0  0  0  0  0  0  0  0  0  0  0
  -63.3450   -7.2960  -35.6790 O   0  0  0  0  0  0  0  0  0  0  0  0
  -60.9920   -6.1280  -34.5230 O   0  0  0  0  0  0  0  0  0  0  0  0
  -62.3180   -8.1180  -31.7400 O   0  0  0  0  0  0  0  0  0  0  0  0
  -61.7140   -5.4830  -31.1100 O   0  0  0  0  0  0  0  0  0  0  0  0
  -65.4910  -11.5690  -34.2660 O   0  0  0  0  0  0  0  0  0  0  0  0
  -61.2540   -4.7140  -34.4790 C   0  0  1  0  0  0  0  0  0  0  0  0
  -60.1310   -3.9670  -35.1920 C   0  0  1  0  0  0  0  0  0  0  0  0
  -60.3940   -2.4680  -35.2260 C   0  0  2  0  0  0  0  0  0  0  0  0
  -61.7840   -2.2020  -35.7820 C   0  0  1  0  0  0  0  0  0  0  0  0
  -62.8210   -2.9840  -34.9890 C   0  0  1  0  0  0  0  0  0  0  0  0
  -64.2220   -2.7440  -35.5400 C   0  0  0  0  0  0  0  0  0  0  0  0
  -58.1730   -5.3410  -34.7870 C   0  0  0  0  0  0  0  0  0  0  0  0
  -57.0430   -5.6280  -33.8430 C   0  0  0  0  0  0  0  0  0  0  0  0
  -58.8640   -4.2320  -34.5380 N   0  0  0  0  0  0  0  0  0  0  0  0
  -59.4150   -1.8260  -36.0500 O   0  0  0  0  0  0  0  0  0  0  0  0
  -62.0730   -0.8020  -35.7020 O   0  0  0  0  0  0  0  0  0  0  0  0
  -62.5280   -4.3810  -35.0350 O   0  0  0  0  0  0  0  0  0  0  0  0
  -65.1860   -3.3580  -34.6780 O   0  0  0  0  0  0  0  0  0  0  0  0
  -58.4400   -6.0770  -35.7220 O   0  0  0  0  0  0  0  0  0  0  0  0
  -57.2670   60.5830  -29.1510 C   0  0  0  0  0  0  0  0  0  0  0  0
  -56.3720   60.5330  -27.9160 C   0  0  1  0  0  0  0  0  0  0  0  0
  -56.6070   61.7320  -27.0100 C   0  0  2  0  0  0  0  0  0  0  0  0
  -56.5000   63.0170  -27.8160 C   0  0  1  0  0  0  0  0  0  0  0  0
  -57.4440   62.9620  -29.0100 C   0  0  1  0  0  0  0  0  0  0  0  0
  -57.3420   64.2350  -29.8420 C   0  0  0  0  0  0  0  0  0  0  0  0
  -56.0310   58.1590  -27.5430 C   0  0  0  0  0  0  0  0  0  0  0  0
  -56.5720   56.9250  -26.8840 C   0  0  0  0  0  0  0  0  0  0  0  0
  -56.6060   59.3040  -27.1830 N   0  0  0  0  0  0  0  0  0  0  0  0
  -55.6330   61.7410  -25.9610 O   0  0  0  0  0  0  0  0  0  0  0  0
  -56.8390   64.1340  -26.9870 O   0  0  0  0  0  0  0  0  0  0  0  0
  -57.1370   61.8340  -29.8300 O   0  0  0  0  0  0  0  0  0  0  0  0
  -56.0470   64.3040  -30.4510 O   0  0  0  0  0  0  0  0  0  0  0  0
  -55.1230   58.1170  -28.3560 O   0  0  0  0  0  0  0  0  0  0  0  0
  1 12  1  0  0  0  0
  2  9  1  6  0  0  0
  2  1  1  0  0  0  0
  3 10  1  6  0  0  0
  3  2  1  0  0  0  0
  3  4  1  0  0  0  0
  4 11  1  6  0  0  0
  4  5  1  0  0  0  0
  5 12  1  0  0  0  0
  5  6  1  1  0  0  0
  6 13  1  0  0  0  0
  7  9  1  0  0  0  0
  8  7  1  0  0  0  0
 14  7  2  0  0  0  0
 15 11  1  6  0  0  0
 16 17  1  0  0  0  0
 16 15  1  0  0  0  0
 16 23  1  1  0  0  0
 17 24  1  6  0  0  0
 17 18  1  0  0  0  0
 18 25  1  1  0  0  0
 19 20  1  6  0  0  0
 19 18  1  0  0  0  0
 20 27  1  0  0  0  0
 21 22  1  0  0  0  0
 21 28  2  0  0  0  0
 23 21  1  0  0  0  0
 26 15  1  0  0  0  0
 26 19  1  0  0  0  0
 29 40  1  0  0  0  0
 30 37  1  6  0  0  0
 30 29  1  0  0  0  0
 30 31  1  0  0  0  0
 31 38  1  1  0  0  0
 31 32  1  0  0  0  0
 32 39  1  6  0  0  0
 33 32  1  0  0  0  0
 33 34  1  1  0  0  0
 35 36  1  0  0  0  0
 35 37  1  0  0  0  0
 40 33  1  0  0  0  0
 41 34  1  0  0  0  0
 42 35  2  0  0  0  0
 43 39  1  6  0  0  0
 43 54  1  0  0  0  0
 43 44  1  0  0  0  0
 44 51  1  1  0  0  0
 44 45  1  0  0  0  0
 45 46  1  0  0  0  0
 45 52  1  6  0  0  0
 46 53  1  1  0  0  0
 47 48  1  6  0  0  0
 47 46  1  0  0  0  0
 49 51  1  0  0  0  0
 50 49  1  0  0  0  0
 54 47  1  0  0  0  0
 55 48  1  0  0  0  0
 56 49  2  0  0  0  0
 57 68  1  0  0  0  0
 58 65  1  6  0  0  0
 58 57  1  0  0  0  0
 59 66  1  6  0  0  0
 59 60  1  0  0  0  0
 59 58  1  0  0  0  0
 60 67  1  6  0  0  0
 60 61  1  0  0  0  0
 61 68  1  0  0  0  0
 61 62  1  1  0  0  0
 62 69  1  0  0  0  0
 63 64  1  0  0  0  0
 65 63  1  0  0  0  0
 70 63  2  0  0  0  0
 71 67  1  6  0  0  0
 72 79  1  1  0  0  0
 72 71  1  0  0  0  0
 73 80  1  6  0  0  0
 73 72  1  0  0  0  0
 74 81  1  1  0  0  0
 74 73  1  0  0  0  0
 74 75  1  0  0  0  0
 75 76  1  6  0  0  0
 76 83  1  0  0  0  0
 77 79  1  0  0  0  0
 77 78  1  0  0  0  0
 82 75  1  0  0  0  0
 82 71  1  0  0  0  0
 84 77  2  0  0  0  0
 85 86  1  0  0  0  0
 86 93  1  1  0  0  0
 86 87  1  0  0  0  0
 87 94  1  1  0  0  0
 88 87  1  0  0  0  0
 88 95  1  1  0  0  0
 89 90  1  6  0  0  0
 89 88  1  0  0  0  0
 91 93  1  0  0  0  0
 91 92  1  0  0  0  0
 96 85  1  0  0  0  0
 96 89  1  0  0  0  0
 97 90  1  0  0  0  0
 98 91  2  0  0  0  0
M  END
$$$$
