/Users/chinazoemeh/HopeMScP/data/ligands/ache/AChE_30_8DT4/AChE_30_8DT4.pdb
 OpenBabel07172512173D

 36 30  0  0  0  0  0  0  0  0999 V2000
   16.2250   26.8470    8.8320 C   0  0  0  0  0  0  0  0  0  0  0  0
   17.1260   27.0820    7.7730 O   0  0  0  0  0  0  0  0  0  0  0  0
   16.8910   25.9780    9.8930 C   0  0  0  0  0  0  0  0  0  0  0  0
   16.3130   26.2320   11.1540 O   0  0  0  0  0  0  0  0  0  0  0  0
   18.3820   26.2830    9.9420 C   0  0  0  0  0  0  0  0  0  0  0  0
   19.0380   25.3570   10.7780 O   0  0  0  0  0  0  0  0  0  0  0  0
    7.3010   32.1330   15.7670 C   0  0  0  0  0  0  0  0  0  0  0  0
    7.3930   32.7790   17.0160 O   0  0  0  0  0  0  0  0  0  0  0  0
    8.6900   31.9970   15.1560 C   0  0  0  0  0  0  0  0  0  0  0  0
    9.6680   32.2600   16.1370 O   0  0  0  0  0  0  0  0  0  0  0  0
    8.8420   32.9870   14.0080 C   0  0  0  0  0  0  0  0  0  0  0  0
    7.8130   32.7740   13.0670 O   0  0  0  0  0  0  0  0  0  0  0  0
   25.5590   40.0270   10.9240 C   0  0  0  0  0  0  0  0  0  0  0  0
   26.2890   39.3990    9.8930 O   0  0  0  0  0  0  0  0  0  0  0  0
   24.6390   41.0820   10.3250 C   0  0  0  0  0  0  0  0  0  0  0  0
   25.3570   41.8820    9.4140 O   0  0  0  0  0  0  0  0  0  0  0  0
   24.0760   41.9540   11.4380 C   0  0  0  0  0  0  0  0  0  0  0  0
   25.0930   42.2380   12.3730 O   0  0  0  0  0  0  0  0  0  0  0  0
  -18.6370   25.7270    9.9630 C   0  0  0  0  0  0  0  0  0  0  0  0
  -19.3600   25.8950    8.7630 O   0  0  0  0  0  0  0  0  0  0  0  0
  -19.6060   25.4680   11.1100 C   0  0  0  0  0  0  0  0  0  0  0  0
  -19.8580   26.6730   11.7970 O   0  0  0  0  0  0  0  0  0  0  0  0
  -18.9900   24.4580   12.0700 C   0  0  0  0  0  0  0  0  0  0  0  0
  -19.8910   24.2130   13.1270 O   0  0  0  0  0  0  0  0  0  0  0  0
  -16.1850   26.8470   -9.8510 C   0  0  0  0  0  0  0  0  0  0  0  0
  -17.1070   27.0680   -8.8080 O   0  0  0  0  0  0  0  0  0  0  0  0
  -16.7980   25.9180  -10.8940 C   0  0  0  0  0  0  0  0  0  0  0  0
  -16.1700   26.1140  -12.1400 O   0  0  0  0  0  0  0  0  0  0  0  0
  -18.2920   26.1970  -11.0150 C   0  0  0  0  0  0  0  0  0  0  0  0
  -18.9030   25.2220  -11.8300 O   0  0  0  0  0  0  0  0  0  0  0  0
   -9.3230   32.1460  -16.5310 C   0  0  0  0  0  0  0  0  0  0  0  0
   -9.5280   32.9630  -17.6610 O   0  0  0  0  0  0  0  0  0  0  0  0
   -7.8600   31.7300  -16.4520 C   0  0  0  0  0  0  0  0  0  0  0  0
   -7.0800   32.5240  -17.3180 O   0  0  0  0  0  0  0  0  0  0  0  0
   -7.3670   31.8830  -15.0180 C   0  0  0  0  0  0  0  0  0  0  0  0
   -7.9570   33.0250  -14.4390 O   0  0  0  0  0  0  0  0  0  0  0  0
  1  3  1  0  0  0  0
  2  1  1  0  0  0  0
  3  5  1  0  0  0  0
  3  4  1  0  0  0  0
  5  6  1  0  0  0  0
  7  8  1  0  0  0  0
  9  7  1  0  0  0  0
  9 10  1  0  0  0  0
 11  9  1  0  0  0  0
 12 11  1  0  0  0  0
 14 13  1  0  0  0  0
 15 13  1  0  0  0  0
 15 17  1  0  0  0  0
 16 15  1  0  0  0  0
 17 18  1  0  0  0  0
 19 21  1  0  0  0  0
 20 19  1  0  0  0  0
 21 22  1  0  0  0  0
 21 23  1  0  0  0  0
 23 24  1  0  0  0  0
 25 26  1  0  0  0  0
 27 25  1  0  0  0  0
 28 27  1  0  0  0  0
 29 27  1  0  0  0  0
 30 29  1  0  0  0  0
 31 33  1  0  0  0  0
 32 31  1  0  0  0  0
 33 35  1  0  0  0  0
 34 33  1  0  0  0  0
 35 36  1  0  0  0  0
M  END
$$$$
