/Users/chinazoemeh/HopeMScP/data/ligands/ache/AChE_17_6O4W/AChE_17_6O4W.pdb
 OpenBabel07172512173D

 36 30  0  0  0  0  0  0  0  0999 V2000
   91.7540   68.7660   -4.8830 C   0  0  0  0  0  0  0  0  0  0  0  0
   92.2020   67.4310   -4.9640 O   0  0  0  0  0  0  0  0  0  0  0  0
   92.9090   69.6520   -4.4420 C   0  0  0  0  0  0  0  0  0  0  0  0
   92.9840   70.7760   -5.2890 O   0  0  0  0  0  0  0  0  0  0  0  0
   92.7200   70.0740   -2.9880 C   0  0  0  0  0  0  0  0  0  0  0  0
   91.6510   70.9800   -2.8530 O   0  0  0  0  0  0  0  0  0  0  0  0
   86.6210   89.3150    1.7380 C   0  0  0  0  0  0  0  0  0  0  0  0
   86.5220   90.6350    2.2280 O   0  0  0  0  0  0  0  0  0  0  0  0
   87.2150   88.4080    2.8120 C   0  0  0  0  0  0  0  0  0  0  0  0
   86.2460   87.4520    3.1880 O   0  0  0  0  0  0  0  0  0  0  0  0
   88.4530   87.7060    2.2560 C   0  0  0  0  0  0  0  0  0  0  0  0
   89.3920   87.4290    3.2760 O   0  0  0  0  0  0  0  0  0  0  0  0
  110.5450  101.3220   -3.5830 C   0  0  0  0  0  0  0  0  0  0  0  0
  111.5020  101.2070   -2.5530 O   0  0  0  0  0  0  0  0  0  0  0  0
  111.1400  100.8240   -4.8950 C   0  0  0  0  0  0  0  0  0  0  0  0
  110.3930   99.7150   -5.3460 O   0  0  0  0  0  0  0  0  0  0  0  0
  111.1150  101.9430   -5.9340 C   0  0  0  0  0  0  0  0  0  0  0  0
  111.7500  101.5100   -7.1190 O   0  0  0  0  0  0  0  0  0  0  0  0
  108.7540   98.7540   15.4060 C   0  0  0  0  0  0  0  0  0  0  0  0
  108.5730   99.6630   14.3430 O   0  0  0  0  0  0  0  0  0  0  0  0
  109.3130   99.4790   16.6240 C   0  0  0  0  0  0  0  0  0  0  0  0
  109.3180   98.5790   17.7110 O   0  0  0  0  0  0  0  0  0  0  0  0
  110.7400   99.9430   16.3430 C   0  0  0  0  0  0  0  0  0  0  0  0
  111.1700  100.8180   17.3660 O   0  0  0  0  0  0  0  0  0  0  0  0
   89.8830   94.4540   10.4800 C   0  0  0  0  0  0  0  0  0  0  0  0
   88.4880   94.3520   10.2810 O   0  0  0  0  0  0  0  0  0  0  0  0
   90.5840   94.6080    9.1340 C   0  0  0  0  0  0  0  0  0  0  0  0
   91.5580   95.6210    9.2450 O   0  0  0  0  0  0  0  0  0  0  0  0
   91.2500   93.2970    8.7180 C   0  0  0  0  0  0  0  0  0  0  0  0
   92.5500   93.2060    9.2680 O   0  0  0  0  0  0  0  0  0  0  0  0
   93.5240   67.3790   18.1590 C   0  0  0  0  0  0  0  0  0  0  0  0
   93.1350   67.0690   19.4810 O   0  0  0  0  0  0  0  0  0  0  0  0
   92.3200   67.3310   17.2180 C   0  0  0  0  0  0  0  0  0  0  0  0
   91.1950   67.9400   17.8180 O   0  0  0  0  0  0  0  0  0  0  0  0
   92.6510   68.0740   15.9270 C   0  0  0  0  0  0  0  0  0  0  0  0
   91.6170   67.8530   14.9900 O   0  0  0  0  0  0  0  0  0  0  0  0
  1  3  1  0  0  0  0
  2  1  1  0  0  0  0
  3  5  1  0  0  0  0
  4  3  1  0  0  0  0
  5  6  1  0  0  0  0
  7  8  1  0  0  0  0
  7  9  1  0  0  0  0
  9 10  1  0  0  0  0
 11  9  1  0  0  0  0
 11 12  1  0  0  0  0
 13 14  1  0  0  0  0
 15 13  1  0  0  0  0
 16 15  1  0  0  0  0
 17 15  1  0  0  0  0
 18 17  1  0  0  0  0
 19 21  1  0  0  0  0
 20 19  1  0  0  0  0
 21 22  1  0  0  0  0
 23 21  1  0  0  0  0
 23 24  1  0  0  0  0
 26 25  1  0  0  0  0
 27 28  1  0  0  0  0
 27 25  1  0  0  0  0
 29 27  1  0  0  0  0
 29 30  1  0  0  0  0
 31 32  1  0  0  0  0
 33 34  1  0  0  0  0
 33 31  1  0  0  0  0
 35 33  1  0  0  0  0
 36 35  1  0  0  0  0
M  END
$$$$
