/Users/chinazoemeh/HopeMScP/data/ligands/ache/AChE_49_6WUY/AChE_49_6WUY.pdb
 OpenBabel07172512173D

 98101  0  0  1  0  0  0  0  0999 V2000
   29.4990   32.8260  345.7210 C   0  0  0  0  0  0  0  0  0  0  0  0
   28.7140   32.1500  344.6030 C   0  0  1  0  0  0  0  0  0  0  0  0
   28.2420   33.1690  343.5730 C   0  0  2  0  0  0  0  0  0  0  0  0
   27.5600   34.3530  344.2490 C   0  0  1  0  0  0  0  0  0  0  0  0
   28.4150   34.8980  345.3880 C   0  0  1  0  0  0  0  0  0  0  0  0
   27.7000   36.0320  346.1120 C   0  0  0  0  0  0  0  0  0  0  0  0
   29.2910   29.8430  344.1220 C   0  0  0  0  0  0  0  0  0  0  0  0
   30.4900   28.9440  344.0550 C   0  0  0  0  0  0  0  0  0  0  0  0
   29.5340   31.1410  343.9620 N   0  0  0  0  0  0  0  0  0  0  0  0
   27.3250   32.5440  342.6680 O   0  0  0  0  0  0  0  0  0  0  0  0
   27.3340   35.3880  343.2850 O   0  0  0  0  0  0  0  0  0  0  0  0
   28.7000   33.8490  346.3110 O   0  0  0  0  0  0  0  0  0  0  0  0
   26.3740   35.6170  346.4590 O   0  0  0  0  0  0  0  0  0  0  0  0
   28.1650   29.4120  344.3110 O   0  0  0  0  0  0  0  0  0  0  0  0
   26.0050   35.9080  343.4700 C   0  0  1  0  0  0  0  0  0  0  0  0
   25.9770   37.3810  343.0780 C   0  0  1  0  0  0  0  0  0  0  0  0
   24.5800   37.9650  343.2450 C   0  0  2  0  0  0  0  0  0  0  0  0
   23.5330   37.0750  342.5850 C   0  0  1  0  0  0  0  0  0  0  0  0
   23.7070   35.6210  343.0070 C   0  0  1  0  0  0  0  0  0  0  0  0
   22.7100   34.7200  342.2890 C   0  0  0  0  0  0  0  0  0  0  0  0
   27.4760   39.2540  343.4420 C   0  0  0  0  0  0  0  0  0  0  0  0
   28.6050   39.7930  344.2690 C   0  0  0  0  0  0  0  0  0  0  0  0
   26.9260   38.1260  343.8820 N   0  0  0  0  0  0  0  0  0  0  0  0
   24.5340   39.2700  342.6600 O   0  0  0  0  0  0  0  0  0  0  0  0
   22.2240   37.5250  342.9510 O   0  0  0  0  0  0  0  0  0  0  0  0
   25.0350   35.1950  342.7070 O   0  0  0  0  0  0  0  0  0  0  0  0
   21.4400   35.3790  342.2140 O   0  0  0  0  0  0  0  0  0  0  0  0
   27.0860   39.8150  342.4310 O   0  0  0  0  0  0  0  0  0  0  0  0
   -6.7820   85.9270  336.5850 C   0  0  0  0  0  0  0  0  0  0  0  0
   -6.2220   87.0560  335.7070 C   0  0  1  0  0  0  0  0  0  0  0  0
   -4.7220   87.2450  335.9490 C   0  0  2  0  0  0  0  0  0  0  0  0
   -4.4200   87.3970  337.4340 C   0  0  1  0  0  0  0  0  0  0  0  0
   -5.0250   86.2170  338.1940 C   0  0  1  0  0  0  0  0  0  0  0  0
   -4.8500   86.2780  339.6970 C   0  0  0  0  0  0  0  0  0  0  0  0
   -7.3830   87.4410  333.5710 C   0  0  0  0  0  0  0  0  0  0  0  0
   -8.1390   88.5270  334.2780 C   0  0  0  0  0  0  0  0  0  0  0  0
   -6.4780   86.7810  334.3020 N   0  0  0  0  0  0  0  0  0  0  0  0
   -4.2730   88.3960  335.2430 O   0  0  0  0  0  0  0  0  0  0  0  0
   -3.0100   87.4600  337.6340 O   0  0  0  0  0  0  0  0  0  0  0  0
   -6.4370   86.1590  337.9460 O   0  0  0  0  0  0  0  0  0  0  0  0
   -4.8670   87.6010  340.2170 O   0  0  0  0  0  0  0  0  0  0  0  0
   -7.5790   87.1760  332.3900 O   0  0  0  0  0  0  0  0  0  0  0  0
   -2.6270   88.6910  338.3180 C   0  0  1  0  0  0  0  0  0  0  0  0
   -1.3480   88.4510  339.1120 C   0  0  1  0  0  0  0  0  0  0  0  0
   -1.0000   89.6980  339.9070 C   0  0  2  0  0  0  0  0  0  0  0  0
   -0.8360   90.8770  338.9550 C   0  0  1  0  0  0  0  0  0  0  0  0
   -2.0560   91.0400  338.0340 C   0  0  1  0  0  0  0  0  0  0  0  0
   -1.8100   92.0200  336.9090 C   0  0  0  0  0  0  0  0  0  0  0  0
   -0.8470   86.1310  339.6850 C   0  0  0  0  0  0  0  0  0  0  0  0
   -1.0420   85.0200  340.6720 C   0  0  0  0  0  0  0  0  0  0  0  0
   -1.4480   87.2880  339.9770 N   0  0  0  0  0  0  0  0  0  0  0  0
    0.1980   89.4860  340.6470 O   0  0  0  0  0  0  0  0  0  0  0  0
   -0.6550   92.0740  339.7020 O   0  0  0  0  0  0  0  0  0  0  0  0
   -2.4250   89.7970  337.4070 O   0  0  0  0  0  0  0  0  0  0  0  0
   -1.2330   91.3790  335.7780 O   0  0  0  0  0  0  0  0  0  0  0  0
   -0.1730   85.9890  338.6680 O   0  0  0  0  0  0  0  0  0  0  0  0
   26.5980   65.1050  372.2030 C   0  0  0  0  0  0  0  0  0  0  0  0
   27.6080   63.9800  372.4470 C   0  0  1  0  0  0  0  0  0  0  0  0
   28.1930   63.9810  373.8600 C   0  0  2  0  0  0  0  0  0  0  0  0
   27.1160   64.1950  374.9240 C   0  0  1  0  0  0  0  0  0  0  0  0
   26.0030   65.1540  374.4930 C   0  0  1  0  0  0  0  0  0  0  0  0
   25.6280   66.0940  375.6330 C   0  0  0  0  0  0  0  0  0  0  0  0
   26.5790   62.3660  370.9560 C   0  0  0  0  0  0  0  0  0  0  0  0
   27.1730   61.1090  370.3940 C   0  0  0  0  0  0  0  0  0  0  0  0
   26.9840   62.6990  372.1780 N   0  0  0  0  0  0  0  0  0  0  0  0
   29.1780   65.0150  373.9660 O   0  0  0  0  0  0  0  0  0  0  0  0
   26.5370   62.9300  375.2670 O   0  0  0  0  0  0  0  0  0  0  0  0
   26.3950   65.9250  373.3560 O   0  0  0  0  0  0  0  0  0  0  0  0
   25.0460   65.3400  376.7020 O   0  0  0  0  0  0  0  0  0  0  0  0
   25.7760   63.0400  370.3320 O   0  0  0  0  0  0  0  0  0  0  0  0
   26.9370   62.5880  376.6060 C   0  0  1  0  0  0  0  0  0  0  0  0
   25.8680   61.7100  377.2470 C   0  0  1  0  0  0  0  0  0  0  0  0
   26.2640   61.3140  378.6640 C   0  0  2  0  0  0  0  0  0  0  0  0
   27.6880   60.7730  378.7030 C   0  0  1  0  0  0  0  0  0  0  0  0
   28.6470   61.7080  377.9760 C   0  0  1  0  0  0  0  0  0  0  0  0
   30.0570   61.1310  377.9500 C   0  0  0  0  0  0  0  0  0  0  0  0
   23.4940   61.8520  376.7700 C   0  0  0  0  0  0  0  0  0  0  0  0
   23.5790   61.3910  375.3450 C   0  0  0  0  0  0  0  0  0  0  0  0
   24.5970   62.4080  377.2630 N   0  0  0  0  0  0  0  0  0  0  0  0
   25.3600   60.3150  379.1500 O   0  0  0  0  0  0  0  0  0  0  0  0
   28.1050   60.6250  380.0650 O   0  0  0  0  0  0  0  0  0  0  0  0
   28.1920   61.9120  376.6410 O   0  0  0  0  0  0  0  0  0  0  0  0
   30.1490   60.1440  376.9160 O   0  0  0  0  0  0  0  0  0  0  0  0
   22.4780   61.7260  377.4340 O   0  0  0  0  0  0  0  0  0  0  0  0
   40.8640   29.5920  371.4080 C   0  0  0  0  0  0  0  0  0  0  0  0
   39.6420   30.5060  371.4340 C   0  0  1  0  0  0  0  0  0  0  0  0
   38.5760   29.9820  372.3850 C   0  0  2  0  0  0  0  0  0  0  0  0
   38.2700   28.5270  372.0640 C   0  0  1  0  0  0  0  0  0  0  0  0
   39.5550   27.7090  372.0810 C   0  0  1  0  0  0  0  0  0  0  0  0
   39.2730   26.2490  371.7460 C   0  0  0  0  0  0  0  0  0  0  0  0
   40.5430   32.7040  370.9390 C   0  0  0  0  0  0  0  0  0  0  0  0
   41.1900   33.9260  371.5200 C   0  0  0  0  0  0  0  0  0  0  0  0
   40.0330   31.8480  371.8200 N   0  0  0  0  0  0  0  0  0  0  0  0
   37.3850   30.7640  372.2500 O   0  0  0  0  0  0  0  0  0  0  0  0
   37.3560   28.0040  373.0340 O   0  0  0  0  0  0  0  0  0  0  0  0
   40.4890   28.2390  371.1390 O   0  0  0  0  0  0  0  0  0  0  0  0
   38.2470   25.7500  372.6120 O   0  0  0  0  0  0  0  0  0  0  0  0
   40.4870   32.5090  369.7360 O   0  0  0  0  0  0  0  0  0  0  0  0
  1 12  1  0  0  0  0
  2  9  1  6  0  0  0
  2  1  1  0  0  0  0
  3 10  1  6  0  0  0
  3  4  1  0  0  0  0
  3  2  1  0  0  0  0
  4 11  1  6  0  0  0
  4  5  1  0  0  0  0
  5  6  1  1  0  0  0
  5 12  1  0  0  0  0
  6 13  1  0  0  0  0
  7 14  2  0  0  0  0
  8  7  1  0  0  0  0
  9  7  1  0  0  0  0
 15 11  1  6  0  0  0
 16 17  1  0  0  0  0
 16 15  1  0  0  0  0
 16 23  1  1  0  0  0
 17 24  1  6  0  0  0
 18 25  1  1  0  0  0
 18 19  1  0  0  0  0
 18 17  1  0  0  0  0
 19 20  1  6  0  0  0
 21 23  1  0  0  0  0
 21 22  1  0  0  0  0
 26 19  1  0  0  0  0
 26 15  1  0  0  0  0
 27 20  1  0  0  0  0
 28 21  2  0  0  0  0
 29 40  1  0  0  0  0
 30 37  1  6  0  0  0
 30 31  1  0  0  0  0
 30 29  1  0  0  0  0
 31 38  1  6  0  0  0
 31 32  1  0  0  0  0
 32 39  1  6  0  0  0
 32 33  1  0  0  0  0
 33 34  1  1  0  0  0
 34 41  1  0  0  0  0
 35 36  1  0  0  0  0
 35 37  1  0  0  0  0
 40 33  1  0  0  0  0
 42 35  2  0  0  0  0
 43 39  1  6  0  0  0
 43 44  1  0  0  0  0
 44 45  1  0  0  0  0
 44 51  1  1  0  0  0
 45 52  1  6  0  0  0
 46 53  1  1  0  0  0
 46 45  1  0  0  0  0
 47 48  1  6  0  0  0
 47 46  1  0  0  0  0
 49 51  1  0  0  0  0
 49 50  1  0  0  0  0
 54 47  1  0  0  0  0
 54 43  1  0  0  0  0
 55 48  1  0  0  0  0
 56 49  2  0  0  0  0
 57 58  1  0  0  0  0
 57 68  1  0  0  0  0
 58 65  1  1  0  0  0
 58 59  1  0  0  0  0
 59 66  1  6  0  0  0
 59 60  1  0  0  0  0
 60 67  1  6  0  0  0
 61 60  1  0  0  0  0
 61 62  1  1  0  0  0
 62 69  1  0  0  0  0
 63 65  1  0  0  0  0
 64 63  1  0  0  0  0
 68 61  1  0  0  0  0
 70 63  2  0  0  0  0
 71 67  1  6  0  0  0
 71 82  1  0  0  0  0
 71 72  1  0  0  0  0
 72 79  1  1  0  0  0
 72 73  1  0  0  0  0
 73 74  1  0  0  0  0
 73 80  1  6  0  0  0
 74 81  1  1  0  0  0
 75 76  1  6  0  0  0
 75 74  1  0  0  0  0
 77 79  1  0  0  0  0
 77 84  2  0  0  0  0
 78 77  1  0  0  0  0
 82 75  1  0  0  0  0
 83 76  1  0  0  0  0
 85 86  1  0  0  0  0
 86 93  1  1  0  0  0
 86 87  1  0  0  0  0
 87 94  1  6  0  0  0
 88 89  1  0  0  0  0
 88 87  1  0  0  0  0
 88 95  1  1  0  0  0
 89 90  1  6  0  0  0
 90 97  1  0  0  0  0
 91 92  1  0  0  0  0
 91 93  1  0  0  0  0
 96 85  1  0  0  0  0
 96 89  1  0  0  0  0
 98 91  2  0  0  0  0
M  END
$$$$
