/Users/chinazoemeh/HopeMScP/data/ligands/ache/AChE_70_5FPQ/AChE_70_5FPQ.pdb
 OpenBabel07172512173D

 26 24  0  0  1  0  0  0  0  0999 V2000
   56.1220   30.2570   22.0050 N   0  0  0  0  0  0  0  0  0  0  0  0
   54.9820   29.3080   21.9780 C   0  0  2  0  0  0  0  0  0  0  0  0
   53.7760   29.7760   22.8190 C   0  0  0  0  0  0  0  0  0  0  0  0
   53.2820   30.8720   22.6080 O   0  0  0  0  0  0  0  0  0  0  0  0
   55.5070   27.9350   22.4130 C   0  0  0  0  0  0  0  0  0  0  0  0
   54.7280   26.8810   21.8520 O   0  0  0  0  0  0  0  0  0  0  0  0
   54.0340   26.0810   24.1920 O   0  0  0  0  0  0  0  0  0  0  0  0
   54.2670   25.6320   22.7730 P   0  0  1  0  0  0  0  0  0  0  0  0
   52.7870   25.1080   21.9250 C   0  0  0  0  0  0  0  0  0  0  0  0
   55.4020   24.5300   22.5660 O   0  0  0  0  0  0  0  0  0  0  0  0
   55.5050   23.4590   23.4990 C   0  0  0  0  0  0  0  0  0  0  0  0
   56.7920   22.6970   23.2130 C   0  0  0  0  0  0  0  0  0  0  0  0
   54.3040   22.5420   23.3500 C   0  0  0  0  0  0  0  0  0  0  0  0
  107.1340   41.9490   29.1550 N   0  0  0  0  0  0  0  0  0  0  0  0
  108.2170   41.4790   28.2580 C   0  0  2  0  0  0  0  0  0  0  0  0
  108.2090   39.9440   28.0770 C   0  0  0  0  0  0  0  0  0  0  0  0
  107.2240   39.3950   27.6020 O   0  0  0  0  0  0  0  0  0  0  0  0
  109.5310   42.0250   28.8220 C   0  0  0  0  0  0  0  0  0  0  0  0
  110.5390   42.2170   27.8270 O   0  0  0  0  0  0  0  0  0  0  0  0
  111.9000   40.2650   28.7800 O   0  0  0  0  0  0  0  0  0  0  0  0
  112.0190   41.5980   28.0770 P   0  0  1  0  0  0  0  0  0  0  0  0
  112.7170   41.5250   26.4430 C   0  0  0  0  0  0  0  0  0  0  0  0
  112.8310   42.6770   28.9230 O   0  0  0  0  0  0  0  0  0  0  0  0
  114.1190   43.0610   28.4530 C   0  0  0  0  0  0  0  0  0  0  0  0
  115.0630   41.8720   28.5890 C   0  0  0  0  0  0  0  0  0  0  0  0
  114.5830   44.2730   29.2470 C   0  0  0  0  0  0  0  0  0  0  0  0
  2  1  1  1  0  0  0
  2  5  1  0  0  0  0
  2  3  1  0  0  0  0
  4  3  2  0  0  0  0
  6  5  1  0  0  0  0
  6  8  1  0  0  0  0
  8  9  1  6  0  0  0
  8  7  2  0  0  0  0
 10  8  1  0  0  0  0
 10 11  1  0  0  0  0
 12 11  1  0  0  0  0
 13 11  1  0  0  0  0
 15 18  1  0  0  0  0
 15 14  1  1  0  0  0
 16 15  1  0  0  0  0
 17 16  2  0  0  0  0
 19 21  1  0  0  0  0
 19 18  1  0  0  0  0
 21 22  1  6  0  0  0
 21 20  2  0  0  0  0
 21 23  1  0  0  0  0
 24 25  1  0  0  0  0
 24 23  1  0  0  0  0
 24 26  1  0  0  0  0
M  END
$$$$
