/Users/chinazoemeh/HopeMScP/data/ligands/ache/AChE_56_4EY4/AChE_56_4EY4.pdb
 OpenBabel07172512173D

 70 72  0  0  1  0  0  0  0  0999 V2000
  -23.2600  -59.6160   21.6310 C   0  0  0  0  0  0  0  0  0  0  0  0
  -24.1260  -60.0920   20.4540 C   0  0  1  0  0  0  0  0  0  0  0  0
  -24.7340  -58.9770   19.6080 C   0  0  2  0  0  0  0  0  0  0  0  0
  -25.1710  -57.7910   20.4410 C   0  0  1  0  0  0  0  0  0  0  0  0
  -24.0510  -57.4120   21.4050 C   0  0  1  0  0  0  0  0  0  0  0  0
  -24.3690  -56.1470   22.1930 C   0  0  0  0  0  0  0  0  0  0  0  0
  -23.3340  -62.2500   19.6590 C   0  0  0  0  0  0  0  0  0  0  0  0
  -24.6570  -62.8960   19.9730 C   0  0  0  0  0  0  0  0  0  0  0  0
  -23.3320  -60.9220   19.5740 N   0  0  0  0  0  0  0  0  0  0  0  0
  -25.8620  -59.4850   18.9320 O   0  0  0  0  0  0  0  0  0  0  0  0
  -25.4890  -56.7420   19.5550 O   0  0  0  0  0  0  0  0  0  0  0  0
  -23.8220  -58.4970   22.2850 O   0  0  0  0  0  0  0  0  0  0  0  0
  -25.6120  -56.2780   22.8440 O   0  0  0  0  0  0  0  0  0  0  0  0
  -22.3050  -62.9170   19.4910 O   0  0  0  0  0  0  0  0  0  0  0  0
  -26.7640  -56.0400   19.5630 C   0  0  1  0  0  0  0  0  0  0  0  0
  -26.8180  -54.5860   19.0810 C   0  0  1  0  0  0  0  0  0  0  0  0
  -28.2210  -53.9740   19.1920 C   0  0  2  0  0  0  0  0  0  0  0  0
  -29.2890  -54.9430   18.6810 C   0  0  1  0  0  0  0  0  0  0  0  0
  -29.1190  -56.2770   19.3970 C   0  0  1  0  0  0  0  0  0  0  0  0
  -30.2070  -57.2740   19.0200 C   0  0  0  0  0  0  0  0  0  0  0  0
  -24.6240  -53.5150   19.3750 C   0  0  0  0  0  0  0  0  0  0  0  0
  -23.6270  -53.0330   20.3940 C   0  0  0  0  0  0  0  0  0  0  0  0
  -25.8500  -53.8000   19.8320 N   0  0  0  0  0  0  0  0  0  0  0  0
  -28.2820  -52.7580   18.4720 O   0  0  0  0  0  0  0  0  0  0  0  0
  -30.5970  -54.4470   18.8990 O   0  0  0  0  0  0  0  0  0  0  0  0
  -27.8490  -56.8190   19.0900 O   0  0  0  0  0  0  0  0  0  0  0  0
  -30.0130  -58.4460   19.7810 O   0  0  0  0  0  0  0  0  0  0  0  0
  -24.2860  -53.6290   18.1940 O   0  0  0  0  0  0  0  0  0  0  0  0
   25.2520  -54.0480  -12.1500 C   0  0  0  0  0  0  0  0  0  0  0  0
   25.9100  -52.9260  -11.3460 C   0  0  1  0  0  0  0  0  0  0  0  0
   25.2240  -51.5810  -11.5490 C   0  0  2  0  0  0  0  0  0  0  0  0
   25.1970  -51.2940  -13.0400 C   0  0  1  0  0  0  0  0  0  0  0  0
   24.4220  -52.4220  -13.7220 C   0  0  1  0  0  0  0  0  0  0  0  0
   24.2210  -52.1680  -15.2180 C   0  0  0  0  0  0  0  0  0  0  0  0
   27.0950  -53.4040   -9.3110 C   0  0  0  0  0  0  0  0  0  0  0  0
   28.3090  -52.8030   -9.9660 C   0  0  0  0  0  0  0  0  0  0  0  0
   25.9340  -53.2680   -9.9460 N   0  0  0  0  0  0  0  0  0  0  0  0
   25.9150  -50.5600  -10.8710 O   0  0  0  0  0  0  0  0  0  0  0  0
   24.6180  -50.0270  -13.2880 O   0  0  0  0  0  0  0  0  0  0  0  0
   25.0580  -53.6730  -13.5030 O   0  0  0  0  0  0  0  0  0  0  0  0
   25.4550  -52.0880  -15.8990 O   0  0  0  0  0  0  0  0  0  0  0  0
   27.1940  -53.9880   -8.2310 O   0  0  0  0  0  0  0  0  0  0  0  0
   25.3590  -48.9240  -13.8730 C   0  0  1  0  0  0  0  0  0  0  0  0
   24.2570  -48.0850  -14.5140 C   0  0  1  0  0  0  0  0  0  0  0  0
   24.8110  -47.1950  -15.6220 C   0  0  2  0  0  0  0  0  0  0  0  0
   26.0030  -46.3890  -15.1120 C   0  0  1  0  0  0  0  0  0  0  0  0
   27.0270  -47.2780  -14.3980 C   0  0  1  0  0  0  0  0  0  0  0  0
   28.0850  -46.4150  -13.7170 C   0  0  0  0  0  0  0  0  0  0  0  0
   21.9700  -48.9400  -14.5580 C   0  0  0  0  0  0  0  0  0  0  0  0
   21.5950  -47.8360  -13.6150 C   0  0  0  0  0  0  0  0  0  0  0  0
   23.2120  -48.9440  -15.0370 N   0  0  0  0  0  0  0  0  0  0  0  0
   23.7990  -46.3150  -16.0590 O   0  0  0  0  0  0  0  0  0  0  0  0
   26.6060  -45.6890  -16.1830 O   0  0  0  0  0  0  0  0  0  0  0  0
   26.4240  -48.1090  -13.4180 O   0  0  0  0  0  0  0  0  0  0  0  0
   28.5790  -47.0780  -12.5730 O   0  0  0  0  0  0  0  0  0  0  0  0
   21.1450  -49.8000  -14.8670 O   0  0  0  0  0  0  0  0  0  0  0  0
   -8.3920  -35.9420  -47.3280 C   0  0  0  0  0  0  0  0  0  0  0  0
   -9.9150  -35.8920  -47.4740 C   0  0  1  0  0  0  0  0  0  0  0  0
  -10.4180  -36.9670  -48.4310 C   0  0  2  0  0  0  0  0  0  0  0  0
   -9.6900  -36.8510  -49.7680 C   0  0  1  0  0  0  0  0  0  0  0  0
   -8.1870  -37.0060  -49.5050 C   0  0  1  0  0  0  0  0  0  0  0  0
   -7.3370  -37.0510  -50.7860 C   0  0  0  0  0  0  0  0  0  0  0  0
  -11.1610  -35.0440  -45.5530 C   0  0  0  0  0  0  0  0  0  0  0  0
  -12.1210  -35.4180  -44.4550 C   0  0  0  0  0  0  0  0  0  0  0  0
  -10.5430  -36.0490  -46.1760 N   0  0  0  0  0  0  0  0  0  0  0  0
  -11.8100  -36.8510  -48.6120 O   0  0  0  0  0  0  0  0  0  0  0  0
  -10.1690  -37.8250  -50.6770 O   0  0  0  0  0  0  0  0  0  0  0  0
   -7.7260  -36.0120  -48.5870 O   0  0  0  0  0  0  0  0  0  0  0  0
   -7.6220  -35.9810  -51.6620 O   0  0  0  0  0  0  0  0  0  0  0  0
  -10.9680  -33.8590  -45.8350 O   0  0  0  0  0  0  0  0  0  0  0  0
  1 12  1  0  0  0  0
  2  9  1  6  0  0  0
  2  1  1  0  0  0  0
  3 10  1  1  0  0  0
  3  4  1  0  0  0  0
  3  2  1  0  0  0  0
  4 11  1  6  0  0  0
  4  5  1  0  0  0  0
  5  6  1  1  0  0  0
  5 12  1  0  0  0  0
  6 13  1  0  0  0  0
  7  8  1  0  0  0  0
  9  7  1  0  0  0  0
 14  7  2  0  0  0  0
 15 11  1  6  0  0  0
 16 17  1  0  0  0  0
 16 15  1  0  0  0  0
 16 23  1  1  0  0  0
 17 24  1  6  0  0  0
 18 25  1  1  0  0  0
 18 17  1  0  0  0  0
 18 19  1  0  0  0  0
 19 20  1  6  0  0  0
 20 27  1  0  0  0  0
 21 23  1  0  0  0  0
 21 22  1  0  0  0  0
 26 19  1  0  0  0  0
 26 15  1  0  0  0  0
 28 21  2  0  0  0  0
 29 30  1  0  0  0  0
 30 37  1  1  0  0  0
 31 30  1  0  0  0  0
 31 38  1  1  0  0  0
 32 39  1  1  0  0  0
 32 31  1  0  0  0  0
 33 34  1  6  0  0  0
 33 40  1  0  0  0  0
 33 32  1  0  0  0  0
 35 42  2  0  0  0  0
 36 35  1  0  0  0  0
 37 35  1  0  0  0  0
 40 29  1  0  0  0  0
 41 34  1  0  0  0  0
 43 54  1  0  0  0  0
 43 39  1  1  0  0  0
 44 51  1  6  0  0  0
 44 43  1  0  0  0  0
 45 52  1  1  0  0  0
 45 46  1  0  0  0  0
 45 44  1  0  0  0  0
 46 53  1  6  0  0  0
 46 47  1  0  0  0  0
 47 48  1  1  0  0  0
 47 54  1  0  0  0  0
 48 55  1  0  0  0  0
 49 50  1  0  0  0  0
 51 49  1  0  0  0  0
 56 49  2  0  0  0  0
 58 57  1  0  0  0  0
 58 65  1  1  0  0  0
 59 66  1  6  0  0  0
 59 58  1  0  0  0  0
 60 67  1  6  0  0  0
 60 61  1  0  0  0  0
 60 59  1  0  0  0  0
 61 62  1  6  0  0  0
 61 68  1  0  0  0  0
 63 64  1  0  0  0  0
 65 63  1  0  0  0  0
 68 57  1  0  0  0  0
 69 62  1  0  0  0  0
 70 63  2  0  0  0  0
M  END
$$$$
