/Users/chinazoemeh/HopeMScP/data/ligands/ache/AChE_10_6O5R/AChE_10_6O5R.pdb
 OpenBabel07172512173D

 40 42  0  0  0  0  0  0  0  0999 V2000
   61.7750  140.2450    3.1150 C   0  0  0  0  0  0  0  0  0  0  0  0
   62.5290  140.1480    1.9770 C   0  0  0  0  0  0  0  0  0  0  0  0
   62.8470  141.3040    1.2760 C   0  0  0  0  0  0  0  0  0  0  0  0
   63.6750  141.1810    0.0330 C   0  0  0  0  0  0  0  0  0  0  0  0
   63.7090  140.1150   -0.5810 O   0  0  0  0  0  0  0  0  0  0  0  0
   64.3430  142.2720   -0.3310 N   0  0  0  0  0  0  0  0  0  0  0  0
   62.3900  142.5280    1.7510 C   0  0  0  0  0  0  0  0  0  0  0  0
   61.6370  142.5680    2.8950 C   0  0  0  0  0  0  0  0  0  0  0  0
   61.3450  141.4370    3.5480 N   0  0  0  0  0  0  0  0  0  0  0  0
   60.5350  141.4900    4.7800 C   0  0  0  0  0  0  0  0  0  0  0  0
   59.4530  142.5520    4.7230 C   0  0  0  0  0  0  0  0  0  0  0  0
   59.3950  143.3540    6.0220 C   0  0  0  0  0  0  0  0  0  0  0  0
   58.3260  142.9760    6.9510 N   0  0  0  0  0  0  0  0  0  0  0  0
   57.3790  143.8950    7.3270 C   0  0  0  0  0  0  0  0  0  0  0  0
   56.5380  143.2580    8.1990 C   0  0  0  0  0  0  0  0  0  0  0  0
   56.9420  141.9630    8.3720 N   0  0  0  0  0  0  0  0  0  0  0  0
   58.0250  141.8110    7.6160 C   0  0  0  0  0  0  0  0  0  0  0  0
   58.7910  140.5870    7.4920 C   0  0  0  0  0  0  0  0  0  0  0  0
   58.2570  139.4490    7.7370 N   0  0  0  0  0  0  0  0  0  0  0  0
   59.0900  138.3480    7.5780 O   0  0  0  0  0  0  0  0  0  0  0  0
   63.5670  140.4340   -9.6720 C   0  0  0  0  0  0  0  0  0  0  0  0
   62.9020  140.1550   -8.5100 C   0  0  0  0  0  0  0  0  0  0  0  0
   62.6400  141.1850   -7.6140 C   0  0  0  0  0  0  0  0  0  0  0  0
   61.9090  140.8620   -6.3460 C   0  0  0  0  0  0  0  0  0  0  0  0
   61.8820  139.7050   -5.9270 O   0  0  0  0  0  0  0  0  0  0  0  0
   61.3100  141.8840   -5.7410 N   0  0  0  0  0  0  0  0  0  0  0  0
   63.0640  142.4720   -7.9250 C   0  0  0  0  0  0  0  0  0  0  0  0
   63.7290  142.6960   -9.1030 C   0  0  0  0  0  0  0  0  0  0  0  0
   63.9690  141.6820   -9.9440 N   0  0  0  0  0  0  0  0  0  0  0  0
   64.6770  141.9250  -11.2150 C   0  0  0  0  0  0  0  0  0  0  0  0
   65.8890  142.8270  -11.0960 C   0  0  0  0  0  0  0  0  0  0  0  0
   66.1650  143.5380  -12.4240 C   0  0  0  0  0  0  0  0  0  0  0  0
   67.1500  142.9030  -13.3070 N   0  0  0  0  0  0  0  0  0  0  0  0
   68.2270  143.6420  -13.7260 C   0  0  0  0  0  0  0  0  0  0  0  0
   68.9730  142.8290  -14.5370 C   0  0  0  0  0  0  0  0  0  0  0  0
   68.3790  141.6010  -14.6340 N   0  0  0  0  0  0  0  0  0  0  0  0
   67.2790  141.6620  -13.8900 C   0  0  0  0  0  0  0  0  0  0  0  0
   66.3410  140.5710  -13.7090 C   0  0  0  0  0  0  0  0  0  0  0  0
   66.6700  139.3590  -13.9640 N   0  0  0  0  0  0  0  0  0  0  0  0
   67.9710  139.1640  -14.4170 O   0  0  0  0  0  0  0  0  0  0  0  0
  1  9  1  0  0  0  0
  2  1  1  0  0  0  0
  3  7  1  0  0  0  0
  3  2  2  0  0  0  0
  4  3  1  0  0  0  0
  5  4  2  0  0  0  0
  6  4  1  0  0  0  0
  7  8  2  0  0  0  0
  8  9  1  0  0  0  0
  9 10  1  0  0  0  0
 11 10  1  0  0  0  0
 11 12  1  0  0  0  0
 12 13  1  0  0  0  0
 13 14  1  0  0  0  0
 13 17  1  0  0  0  0
 14 15  2  0  0  0  0
 15 16  1  0  0  0  0
 17 16  2  0  0  0  0
 18 17  1  0  0  0  0
 18 19  2  0  0  0  0
 20 19  1  0  0  0  0
 21 22  1  0  0  0  0
 22 23  2  0  0  0  0
 23 24  1  0  0  0  0
 24 25  2  0  0  0  0
 24 26  1  0  0  0  0
 27 23  1  0  0  0  0
 28 27  2  0  0  0  0
 29 21  1  0  0  0  0
 29 28  1  0  0  0  0
 30 31  1  0  0  0  0
 30 29  1  0  0  0  0
 32 31  1  0  0  0  0
 33 32  1  0  0  0  0
 34 33  1  0  0  0  0
 35 34  2  0  0  0  0
 36 35  1  0  0  0  0
 36 37  2  0  0  0  0
 37 38  1  0  0  0  0
 37 33  1  0  0  0  0
 39 38  2  0  0  0  0
 40 39  1  0  0  0  0
M  END
$$$$
