/Users/chinazoemeh/HopeMScP/data/ligands/ache/AChE_32_8DT7/AChE_32_8DT7.pdb
 OpenBabel07172512173D

 24 20  0  0  0  0  0  0  0  0999 V2000
   91.9520   63.3160   14.3220 C   0  0  0  0  0  0  0  0  0  0  0  0
   92.8980   62.4510   14.9100 O   0  0  0  0  0  0  0  0  0  0  0  0
   91.9790   63.1590   12.8060 C   0  0  0  0  0  0  0  0  0  0  0  0
   90.6610   63.1800   12.3070 O   0  0  0  0  0  0  0  0  0  0  0  0
   92.6440   61.8390   12.4340 C   0  0  0  0  0  0  0  0  0  0  0  0
   92.4980   61.6140   11.0490 O   0  0  0  0  0  0  0  0  0  0  0  0
   92.9460   72.3180    7.5020 C   0  0  0  0  0  0  0  0  0  0  0  0
   92.4240   72.9680    6.3650 O   0  0  0  0  0  0  0  0  0  0  0  0
   93.4120   73.3500    8.5230 C   0  0  0  0  0  0  0  0  0  0  0  0
   93.4890   72.7560    9.8000 O   0  0  0  0  0  0  0  0  0  0  0  0
   92.4330   74.5150    8.5600 C   0  0  0  0  0  0  0  0  0  0  0  0
   92.9900   75.5880    9.2840 O   0  0  0  0  0  0  0  0  0  0  0  0
  100.0940   49.4790  -16.7720 C   0  0  0  0  0  0  0  0  0  0  0  0
   99.4710   49.0880  -15.5690 O   0  0  0  0  0  0  0  0  0  0  0  0
  100.8370   48.2920  -17.3710 C   0  0  0  0  0  0  0  0  0  0  0  0
  100.3090   47.0960  -16.8460 O   0  0  0  0  0  0  0  0  0  0  0  0
  100.6460   48.3020  -18.8820 C   0  0  0  0  0  0  0  0  0  0  0  0
  101.0000   49.5680  -19.3910 O   0  0  0  0  0  0  0  0  0  0  0  0
  109.0340   43.9860  -11.9640 C   0  0  0  0  0  0  0  0  0  0  0  0
  109.5360   43.7470  -10.6690 O   0  0  0  0  0  0  0  0  0  0  0  0
  110.1590   44.4670  -12.8720 C   0  0  0  0  0  0  0  0  0  0  0  0
  109.7500   44.4270  -14.2200 O   0  0  0  0  0  0  0  0  0  0  0  0
  111.4090   43.6140  -12.6820 C   0  0  0  0  0  0  0  0  0  0  0  0
  111.3080   42.4460  -13.4650 O   0  0  0  0  0  0  0  0  0  0  0  0
  1  2  1  0  0  0  0
  3  1  1  0  0  0  0
  4  3  1  0  0  0  0
  5  3  1  0  0  0  0
  6  5  1  0  0  0  0
  7  9  1  0  0  0  0
  8  7  1  0  0  0  0
  9 11  1  0  0  0  0
  9 10  1  0  0  0  0
 11 12  1  0  0  0  0
 13 14  1  0  0  0  0
 15 16  1  0  0  0  0
 15 13  1  0  0  0  0
 17 15  1  0  0  0  0
 18 17  1  0  0  0  0
 19 20  1  0  0  0  0
 21 23  1  0  0  0  0
 21 19  1  0  0  0  0
 22 21  1  0  0  0  0
 24 23  1  0  0  0  0
M  END
$$$$
