/Users/chinazoemeh/HopeMScP/data/ligands/ache/AChE_51_6WV1/AChE_51_6WV1.pdb
 OpenBabel07172512173D

 84 86  0  0  1  0  0  0  0  0999 V2000
   59.0930    4.7020   11.3230 C   0  0  0  0  0  0  0  0  0  0  0  0
   58.5040    3.4840   10.6110 C   0  0  1  0  0  0  0  0  0  0  0  0
   57.0150    3.3480   10.9250 C   0  0  2  0  0  0  0  0  0  0  0  0
   56.7770    3.3360   12.4300 C   0  0  1  0  0  0  0  0  0  0  0  0
   57.4400    4.5550   13.0760 C   0  0  1  0  0  0  0  0  0  0  0  0
   57.3860    4.5350   14.5880 C   0  0  0  0  0  0  0  0  0  0  0  0
   59.6270    2.8340    8.5220 C   0  0  0  0  0  0  0  0  0  0  0  0
   60.4400    1.8890    9.3580 C   0  0  0  0  0  0  0  0  0  0  0  0
   58.7170    3.5670    9.1750 N   0  0  0  0  0  0  0  0  0  0  0  0
   56.5250    2.1400   10.3540 O   0  0  0  0  0  0  0  0  0  0  0  0
   55.3720    3.3420   12.6730 O   0  0  0  0  0  0  0  0  0  0  0  0
   58.8320    4.6110   12.7240 O   0  0  0  0  0  0  0  0  0  0  0  0
   57.5160    3.2100   15.0870 O   0  0  0  0  0  0  0  0  0  0  0  0
   59.7860    2.9270    7.3080 O   0  0  0  0  0  0  0  0  0  0  0  0
   54.9380    2.2790   13.5640 C   0  0  1  0  0  0  0  0  0  0  0  0
   53.5360    2.6250   14.0750 C   0  0  1  0  0  0  0  0  0  0  0  0
   53.0340    1.5380   15.0250 C   0  0  2  0  0  0  0  0  0  0  0  0
   53.1270    0.1680   14.3630 C   0  0  1  0  0  0  0  0  0  0  0  0
   54.5400   -0.0760   13.8370 C   0  0  1  0  0  0  0  0  0  0  0  0
   54.6650   -1.3700   13.0720 C   0  0  0  0  0  0  0  0  0  0  0  0
   52.9720    5.0140   14.1830 C   0  0  0  0  0  0  0  0  0  0  0  0
   53.0490    6.2680   15.0000 C   0  0  0  0  0  0  0  0  0  0  0  0
   53.5230    3.9250   14.7290 N   0  0  0  0  0  0  0  0  0  0  0  0
   51.6870    1.8090   15.3940 O   0  0  0  0  0  0  0  0  0  0  0  0
   52.7900   -0.8560   15.2930 O   0  0  0  0  0  0  0  0  0  0  0  0
   54.9200    0.9790   12.9380 O   0  0  0  0  0  0  0  0  0  0  0  0
   54.6760   -1.1410   11.6700 O   0  0  0  0  0  0  0  0  0  0  0  0
   52.4370    4.9880   13.0800 O   0  0  0  0  0  0  0  0  0  0  0  0
  127.4150   57.9410   21.6100 C   0  0  0  0  0  0  0  0  0  0  0  0
  128.2310   58.4820   20.4240 C   0  0  1  0  0  0  0  0  0  0  0  0
  128.6870   57.3430   19.5110 C   0  0  2  0  0  0  0  0  0  0  0  0
  129.4080   56.2650   20.3080 C   0  0  1  0  0  0  0  0  0  0  0  0
  128.5040   55.7880   21.4440 C   0  0  1  0  0  0  0  0  0  0  0  0
  129.1580   54.7680   22.3470 C   0  0  0  0  0  0  0  0  0  0  0  0
  127.6690   60.7770   19.7330 C   0  0  0  0  0  0  0  0  0  0  0  0
  128.7930   61.2270   20.6190 C   0  0  0  0  0  0  0  0  0  0  0  0
  127.4550   59.4580   19.6750 N   0  0  0  0  0  0  0  0  0  0  0  0
  129.5490   57.8600   18.5030 O   0  0  0  0  0  0  0  0  0  0  0  0
  129.7510   55.1860   19.4430 O   0  0  0  0  0  0  0  0  0  0  0  0
  128.1540   56.9020   22.2770 O   0  0  0  0  0  0  0  0  0  0  0  0
  130.4830   55.1620   22.6750 O   0  0  0  0  0  0  0  0  0  0  0  0
  126.9870   61.5720   19.0930 O   0  0  0  0  0  0  0  0  0  0  0  0
  131.1560   54.8210   19.5430 C   0  0  1  0  0  0  0  0  0  0  0  0
  131.3650   53.4770   18.8240 C   0  0  1  0  0  0  0  0  0  0  0  0
  132.8380   53.0690   18.8690 C   0  0  2  0  0  0  0  0  0  0  0  0
  133.7340   54.2000   18.3790 C   0  0  1  0  0  0  0  0  0  0  0  0
  133.4200   55.4900   19.1310 C   0  0  1  0  0  0  0  0  0  0  0  0
  134.2090   56.6790   18.6370 C   0  0  0  0  0  0  0  0  0  0  0  0
  129.2320   52.3000   19.1400 C   0  0  0  0  0  0  0  0  0  0  0  0
  128.5280   51.1760   19.8400 C   0  0  0  0  0  0  0  0  0  0  0  0
  130.5330   52.4390   19.4140 N   0  0  0  0  0  0  0  0  0  0  0  0
  133.0310   51.9170   18.0570 O   0  0  0  0  0  0  0  0  0  0  0  0
  135.1020   53.8550   18.5750 O   0  0  0  0  0  0  0  0  0  0  0  0
  132.0310   55.8150   18.9750 O   0  0  0  0  0  0  0  0  0  0  0  0
  134.3550   57.6570   19.6580 O   0  0  0  0  0  0  0  0  0  0  0  0
  128.6490   53.0490   18.3640 O   0  0  0  0  0  0  0  0  0  0  0  0
   26.8580   24.0310   46.7910 C   0  0  0  0  0  0  0  0  0  0  0  0
   25.9300   25.2370   46.6680 C   0  0  1  0  0  0  0  0  0  0  0  0
   26.0420   26.1580   47.8760 C   0  0  2  0  0  0  0  0  0  0  0  0
   25.9030   25.3560   49.1600 C   0  0  1  0  0  0  0  0  0  0  0  0
   26.8960   24.2020   49.1700 C   0  0  1  0  0  0  0  0  0  0  0  0
   26.7630   23.3800   50.4460 C   0  0  0  0  0  0  0  0  0  0  0  0
   25.8590   27.2240   45.2620 C   0  0  0  0  0  0  0  0  0  0  0  0
   26.8460   28.2660   45.6960 C   0  0  0  0  0  0  0  0  0  0  0  0
   26.2350   25.9610   45.4480 N   0  0  0  0  0  0  0  0  0  0  0  0
   25.0100   27.1490   47.8280 O   0  0  0  0  0  0  0  0  0  0  0  0
   26.1450   26.2070   50.2860 O   0  0  0  0  0  0  0  0  0  0  0  0
   26.6780   23.3600   48.0390 O   0  0  0  0  0  0  0  0  0  0  0  0
   27.8080   22.4030   50.4960 O   0  0  0  0  0  0  0  0  0  0  0  0
   24.7810   27.5140   44.7710 O   0  0  0  0  0  0  0  0  0  0  0  0
   80.8160   18.4520   24.3800 C   0  0  0  0  0  0  0  0  0  0  0  0
   82.2130   18.5180   25.0140 C   0  0  1  0  0  0  0  0  0  0  0  0
   82.3060   17.5580   26.2010 C   0  0  2  0  0  0  0  0  0  0  0  0
   81.1770   17.8210   27.1900 C   0  0  1  0  0  0  0  0  0  0  0  0
   79.8230   17.7890   26.4800 C   0  0  1  0  0  0  0  0  0  0  0  0
   78.6730   18.1860   27.3760 C   0  0  0  0  0  0  0  0  0  0  0  0
   83.4400   17.0970   23.3940 C   0  0  0  0  0  0  0  0  0  0  0  0
   84.5970   17.0480   22.4400 C   0  0  0  0  0  0  0  0  0  0  0  0
   83.2690   18.2560   24.0440 N   0  0  0  0  0  0  0  0  0  0  0  0
   83.5640   17.7170   26.8480 O   0  0  0  0  0  0  0  0  0  0  0  0
   81.1970   16.8380   28.2200 O   0  0  0  0  0  0  0  0  0  0  0  0
   79.8180   18.7140   25.3820 O   0  0  0  0  0  0  0  0  0  0  0  0
   77.9490   19.2800   26.8270 O   0  0  0  0  0  0  0  0  0  0  0  0
   82.6970   16.1320   23.5620 O   0  0  0  0  0  0  0  0  0  0  0  0
  1 12  1  0  0  0  0
  2  9  1  6  0  0  0
  2  3  1  0  0  0  0
  2  1  1  0  0  0  0
  3 10  1  1  0  0  0
  3  4  1  0  0  0  0
  4 11  1  6  0  0  0
  4  5  1  0  0  0  0
  5  6  1  1  0  0  0
  6 13  1  0  0  0  0
  7  9  1  0  0  0  0
  7  8  1  0  0  0  0
 12  5  1  0  0  0  0
 14  7  2  0  0  0  0
 15 11  1  6  0  0  0
 15 16  1  0  0  0  0
 16 23  1  1  0  0  0
 16 17  1  0  0  0  0
 17 24  1  6  0  0  0
 18 17  1  0  0  0  0
 18 25  1  1  0  0  0
 19 20  1  6  0  0  0
 19 18  1  0  0  0  0
 21 23  1  0  0  0  0
 21 22  1  0  0  0  0
 26 15  1  0  0  0  0
 26 19  1  0  0  0  0
 27 20  1  0  0  0  0
 28 21  2  0  0  0  0
 29 40  1  0  0  0  0
 30 37  1  6  0  0  0
 30 29  1  0  0  0  0
 31 38  1  6  0  0  0
 31 32  1  0  0  0  0
 31 30  1  0  0  0  0
 32 39  1  6  0  0  0
 32 33  1  0  0  0  0
 33 40  1  0  0  0  0
 33 34  1  1  0  0  0
 34 41  1  0  0  0  0
 35 36  1  0  0  0  0
 37 35  1  0  0  0  0
 42 35  2  0  0  0  0
 43 39  1  6  0  0  0
 44 45  1  0  0  0  0
 44 51  1  1  0  0  0
 44 43  1  0  0  0  0
 45 52  1  6  0  0  0
 46 53  1  1  0  0  0
 46 45  1  0  0  0  0
 46 47  1  0  0  0  0
 47 48  1  6  0  0  0
 48 55  1  0  0  0  0
 49 51  1  0  0  0  0
 49 50  1  0  0  0  0
 54 47  1  0  0  0  0
 54 43  1  0  0  0  0
 56 49  2  0  0  0  0
 57 68  1  0  0  0  0
 58 65  1  6  0  0  0
 58 57  1  0  0  0  0
 58 59  1  0  0  0  0
 59 66  1  6  0  0  0
 59 60  1  0  0  0  0
 60 61  1  0  0  0  0
 60 67  1  1  0  0  0
 61 62  1  1  0  0  0
 62 69  1  0  0  0  0
 63 65  1  0  0  0  0
 63 64  1  0  0  0  0
 68 61  1  0  0  0  0
 70 63  2  0  0  0  0
 71 72  1  0  0  0  0
 71 82  1  0  0  0  0
 72 79  1  6  0  0  0
 72 73  1  0  0  0  0
 73 80  1  1  0  0  0
 73 74  1  0  0  0  0
 74 81  1  1  0  0  0
 75 74  1  0  0  0  0
 75 76  1  1  0  0  0
 77 84  2  0  0  0  0
 77 79  1  0  0  0  0
 78 77  1  0  0  0  0
 82 75  1  0  0  0  0
 83 76  1  0  0  0  0
M  END
$$$$
