/Users/chinazoemeh/HopeMScP/data/ligands/ache/AChE_14_7RB5/AChE_14_7RB5.pdb
 OpenBabel07172512173D

 10  9  0  0  1  0  0  0  0  0999 V2000
    8.3400   39.4220    6.5830 N   0  0  0  0  0  4  0  0  0  0  0  0
    7.8910   38.0390    6.4740 C   0  0  0  0  0  0  0  0  0  0  0  0
    7.2460   37.7540    5.1140 C   0  0  0  0  0  0  0  0  0  0  0  0
    6.5210   35.8790    3.5530 C   0  0  2  0  0  0  0  0  0  0  0  0
    5.6050   36.8440    3.1080 O   0  0  0  0  0  0  0  0  0  0  0  0
    5.7260   34.5880    3.7390 C   0  0  0  0  0  0  0  0  0  0  0  0
    9.1100   39.5870    7.7970 C   0  0  0  0  0  0  0  0  0  0  0  0
    7.2080   40.3260    6.6500 C   0  0  0  0  0  0  0  0  0  0  0  0
    9.1880   39.7590    5.4570 C   0  0  0  0  0  0  0  0  0  0  0  0
    7.1380   36.2410    4.9110 C   0  0  0  0  0  0  0  0  0  0  0  0
  1  8  1  0  0  0  0
  1  7  1  0  0  0  0
  2  1  1  0  0  0  0
  3  2  1  0  0  0  0
  4  6  1  1  0  0  0
  4 10  1  0  0  0  0
  5  4  1  0  0  0  0
  9  1  1  0  0  0  0
 10  3  1  0  0  0  0
M  END
$$$$
